SUMMARY OF JOB INFORMATION
  STEP      INC     ATT  ITRS     TOT TIME     STEP TIME      INC TIME
     1          1     1     4  0.100000E-02  0.100000E-02  0.100000E-02
     1          1     2     4  0.100000E-02  0.100000E-02  0.100000E-02
     1          1     2     4  0.100000E-02  0.100000E-02  0.100000E-02
     1          1     2     4  0.100000E-02  0.100000E-02  0.100000E-02
     1          1     2     4  0.100000E-02  0.100000E-02  0.100000E-02
     1          1     2     4  0.100000E-02  0.100000E-02  0.100000E-02
     1          1     2     4  0.100000E-02  0.100000E-02  0.100000E-02
     1          1     2     4  0.100000E-02  0.100000E-02  0.100000E-02
     1          1     2     4  0.100000E-02  0.100000E-02  0.100000E-02
     1          1     2     4  0.100000E-02  0.100000E-02  0.100000E-02
     1          1     2     4  0.100000E-02  0.100000E-02  0.100000E-02
     1          1     2     4  0.100000E-02  0.100000E-02  0.100000E-02
     1          1     2     4  0.100000E-02  0.100000E-02  0.100000E-02
     1          1     2     4  0.100000E-02  0.100000E-02  0.100000E-02
     1          1     2     4  0.100000E-02  0.100000E-02  0.100000E-02
     1          1     2     4  0.100000E-02  0.100000E-02  0.100000E-02
     1          1     2     4  0.100000E-02  0.100000E-02  0.100000E-02
     1          1     2     4  0.100000E-02  0.100000E-02  0.100000E-02
     1          1     2     4  0.100000E-02  0.100000E-02  0.100000E-02
     1          1     2     4  0.100000E-02  0.100000E-02  0.100000E-02
     1          1     2     4  0.100000E-02  0.100000E-02  0.100000E-02
     1          1     2     4  0.100000E-02  0.100000E-02  0.100000E-02
     1          1     2     4  0.100000E-02  0.100000E-02  0.100000E-02
     1          1     2     4  0.100000E-02  0.100000E-02  0.100000E-02
     1          1     2     4  0.100000E-02  0.100000E-02  0.100000E-02
     1          1     2     4  0.100000E-02  0.100000E-02  0.100000E-02
     1          1     2     4  0.100000E-02  0.100000E-02  0.100000E-02
     1          1     2     4  0.100000E-02  0.100000E-02  0.100000E-02
     1          1     2     4  0.100000E-02  0.100000E-02  0.100000E-02
     1          1     2     4  0.100000E-02  0.100000E-02  0.100000E-02
     1          1     2     4  0.100000E-02  0.100000E-02  0.100000E-02
     1          1     2     4  0.100000E-02  0.100000E-02  0.100000E-02
     1          1     2     4  0.100000E-02  0.100000E-02  0.100000E-02
     1          1     2     4  0.100000E-02  0.100000E-02  0.100000E-02
     1          1     2     4  0.100000E-02  0.100000E-02  0.100000E-02
     1          1     2     4  0.100000E-02  0.100000E-02  0.100000E-02
     1          1     2     4  0.100000E-02  0.100000E-02  0.100000E-02
     1          1     2     4  0.100000E-02  0.100000E-02  0.100000E-02
     1          1     2     4  0.100000E-02  0.100000E-02  0.100000E-02
     1          1     2     4  0.100000E-02  0.100000E-02  0.100000E-02
     1          1     2     4  0.100000E-02  0.100000E-02  0.100000E-02
     1          1     2     4  0.100000E-02  0.100000E-02  0.100000E-02
     1          1     2     4  0.100000E-02  0.100000E-02  0.100000E-02
     1          1     2     4  0.100000E-02  0.100000E-02  0.100000E-02
     1          1     2     4  0.100000E-02  0.100000E-02  0.100000E-02
     1          1     2     4  0.100000E-02  0.100000E-02  0.100000E-02
     1          1     2     4  0.100000E-02  0.100000E-02  0.100000E-02
     1          1     2     4  0.100000E-02  0.100000E-02  0.100000E-02
     1          1     2     4  0.100000E-02  0.100000E-02  0.100000E-02
     1          1     2     4  0.100000E-02  0.100000E-02  0.100000E-02
     1          1     2     4  0.100000E-02  0.100000E-02  0.100000E-02
     1          1     2     4  0.100000E-02  0.100000E-02  0.100000E-02
     1          1     2     4  0.100000E-02  0.100000E-02  0.100000E-02
     1          1     2     4  0.100000E-02  0.100000E-02  0.100000E-02
     1          1     2     4  0.100000E-02  0.100000E-02  0.100000E-02
     1          1     2     4  0.100000E-02  0.100000E-02  0.100000E-02
     1          1     2     4  0.100000E-02  0.100000E-02  0.100000E-02
     1          1     2     4  0.100000E-02  0.100000E-02  0.100000E-02
     1          1     2     4  0.100000E-02  0.100000E-02  0.100000E-02
     1          1     2     4  0.100000E-02  0.100000E-02  0.100000E-02
     1          1     2     4  0.100000E-02  0.100000E-02  0.100000E-02
     1          1     2     4  0.100000E-02  0.100000E-02  0.100000E-02
     1          1     2     4  0.100000E-02  0.100000E-02  0.100000E-02
     1          1     2     4  0.100000E-02  0.100000E-02  0.100000E-02
     1          1     2     4  0.100000E-02  0.100000E-02  0.100000E-02
     1          1     2     4  0.100000E-02  0.100000E-02  0.100000E-02
     1          1     2     4  0.100000E-02  0.100000E-02  0.100000E-02
     1          1     2     4  0.100000E-02  0.100000E-02  0.100000E-02
     1          1     2     4  0.100000E-02  0.100000E-02  0.100000E-02
     1          1     2     4  0.100000E-02  0.100000E-02  0.100000E-02
     1          1     2     4  0.100000E-02  0.100000E-02  0.100000E-02
     1          1     2     4  0.100000E-02  0.100000E-02  0.100000E-02
     1          1     2     4  0.100000E-02  0.100000E-02  0.100000E-02
     1          1     2     4  0.100000E-02  0.100000E-02  0.100000E-02
     1          1     2     4  0.100000E-02  0.100000E-02  0.100000E-02
     1          1     2     4  0.100000E-02  0.100000E-02  0.100000E-02
     1          1     2     4  0.100000E-02  0.100000E-02  0.100000E-02
     1          1     2     4  0.100000E-02  0.100000E-02  0.100000E-02
     1          1     2     4  0.100000E-02  0.100000E-02  0.100000E-02
     1          1     2     4  0.100000E-02  0.100000E-02  0.100000E-02
     1          1     2     4  0.100000E-02  0.100000E-02  0.100000E-02
     1          1     2     4  0.100000E-02  0.100000E-02  0.100000E-02
     1          1     2     4  0.100000E-02  0.100000E-02  0.100000E-02
     1          1     2     4  0.100000E-02  0.100000E-02  0.100000E-02
     1          1     2     4  0.100000E-02  0.100000E-02  0.100000E-02
     1          2     1     4  0.200000E-02  0.200000E-02  0.100000E-02
     1          2     2     4  0.200000E-02  0.200000E-02  0.100000E-02
     1          2     2     4  0.200000E-02  0.200000E-02  0.100000E-02
     1          2     2     4  0.200000E-02  0.200000E-02  0.100000E-02
     1          2     2     4  0.200000E-02  0.200000E-02  0.100000E-02
     1          2     2     4  0.200000E-02  0.200000E-02  0.100000E-02
     1          2     2     4  0.200000E-02  0.200000E-02  0.100000E-02
     1          2     2     4  0.200000E-02  0.200000E-02  0.100000E-02
     1          2     2     4  0.200000E-02  0.200000E-02  0.100000E-02
     1          2     2     4  0.200000E-02  0.200000E-02  0.100000E-02
     1          2     2     4  0.200000E-02  0.200000E-02  0.100000E-02
     1          2     2     4  0.200000E-02  0.200000E-02  0.100000E-02
     1          2     2     4  0.200000E-02  0.200000E-02  0.100000E-02
     1          2     2     4  0.200000E-02  0.200000E-02  0.100000E-02
     1          2     2     4  0.200000E-02  0.200000E-02  0.100000E-02
     1          2     2     4  0.200000E-02  0.200000E-02  0.100000E-02
     1          2     2     4  0.200000E-02  0.200000E-02  0.100000E-02
     1          2     2     4  0.200000E-02  0.200000E-02  0.100000E-02
     1          2     2     4  0.200000E-02  0.200000E-02  0.100000E-02
     1          2     2     4  0.200000E-02  0.200000E-02  0.100000E-02
     1          2     2     4  0.200000E-02  0.200000E-02  0.100000E-02
     1          2     2     4  0.200000E-02  0.200000E-02  0.100000E-02
     1          2     2     4  0.200000E-02  0.200000E-02  0.100000E-02
     1          2     2     4  0.200000E-02  0.200000E-02  0.100000E-02
     1          2     2     4  0.200000E-02  0.200000E-02  0.100000E-02
     1          2     2     4  0.200000E-02  0.200000E-02  0.100000E-02
     1          2     2     4  0.200000E-02  0.200000E-02  0.100000E-02
     1          2     2     4  0.200000E-02  0.200000E-02  0.100000E-02
     1          2     2     4  0.200000E-02  0.200000E-02  0.100000E-02
     1          2     2     4  0.200000E-02  0.200000E-02  0.100000E-02
     1          2     2     4  0.200000E-02  0.200000E-02  0.100000E-02
     1          2     2     4  0.200000E-02  0.200000E-02  0.100000E-02
     1          2     2     4  0.200000E-02  0.200000E-02  0.100000E-02
     1          2     2     4  0.200000E-02  0.200000E-02  0.100000E-02
     1          2     2     4  0.200000E-02  0.200000E-02  0.100000E-02
     1          2     2     4  0.200000E-02  0.200000E-02  0.100000E-02
     1          2     2     4  0.200000E-02  0.200000E-02  0.100000E-02
     1          2     2     4  0.200000E-02  0.200000E-02  0.100000E-02
     1          2     2     4  0.200000E-02  0.200000E-02  0.100000E-02
     1          2     2     4  0.200000E-02  0.200000E-02  0.100000E-02
     1          2     2     4  0.200000E-02  0.200000E-02  0.100000E-02
     1          2     2     4  0.200000E-02  0.200000E-02  0.100000E-02
     1          2     2     4  0.200000E-02  0.200000E-02  0.100000E-02
     1          2     2     4  0.200000E-02  0.200000E-02  0.100000E-02
     1          2     2     4  0.200000E-02  0.200000E-02  0.100000E-02
     1          2     2     4  0.200000E-02  0.200000E-02  0.100000E-02
     1          2     2     4  0.200000E-02  0.200000E-02  0.100000E-02
     1          2     2     4  0.200000E-02  0.200000E-02  0.100000E-02
     1          2     2     4  0.200000E-02  0.200000E-02  0.100000E-02
     1          2     2     4  0.200000E-02  0.200000E-02  0.100000E-02
     1          2     2     4  0.200000E-02  0.200000E-02  0.100000E-02
     1          3     1     4  0.300000E-02  0.300000E-02  0.100000E-02
     1          3     2     4  0.300000E-02  0.300000E-02  0.100000E-02
     1          3     2     4  0.300000E-02  0.300000E-02  0.100000E-02
     1          3     2     4  0.300000E-02  0.300000E-02  0.100000E-02
     1          3     2     4  0.300000E-02  0.300000E-02  0.100000E-02
     1          3     2     4  0.300000E-02  0.300000E-02  0.100000E-02
     1          3     2     4  0.300000E-02  0.300000E-02  0.100000E-02
     1          3     2     4  0.300000E-02  0.300000E-02  0.100000E-02
     1          3     2     4  0.300000E-02  0.300000E-02  0.100000E-02
     1          3     2     4  0.300000E-02  0.300000E-02  0.100000E-02
     1          4     1     4  0.400000E-02  0.400000E-02  0.100000E-02
     1          4     2     4  0.400000E-02  0.400000E-02  0.100000E-02
     1          4     2     4  0.400000E-02  0.400000E-02  0.100000E-02
     1          4     2     4  0.400000E-02  0.400000E-02  0.100000E-02
     1          5     1     4  0.500000E-02  0.500000E-02  0.100000E-02
     1          5     2     4  0.500000E-02  0.500000E-02  0.100000E-02
     1          5     2     4  0.500000E-02  0.500000E-02  0.100000E-02
     1          6     1     3  0.600000E-02  0.600000E-02  0.100000E-02
     1          6     2     3  0.600000E-02  0.600000E-02  0.100000E-02
     1          6     2     3  0.600000E-02  0.600000E-02  0.100000E-02
     1          6     2     3  0.600000E-02  0.600000E-02  0.100000E-02
     1          6     2     3  0.600000E-02  0.600000E-02  0.100000E-02
     1          6     2     3  0.600000E-02  0.600000E-02  0.100000E-02
     1          6     2     3  0.600000E-02  0.600000E-02  0.100000E-02
     1          7     1     3  0.700000E-02  0.700000E-02  0.100000E-02
     1          7     2     3  0.700000E-02  0.700000E-02  0.100000E-02
     1          7     2     3  0.700000E-02  0.700000E-02  0.100000E-02
     1          7     2     3  0.700000E-02  0.700000E-02  0.100000E-02
     1          7     2     3  0.700000E-02  0.700000E-02  0.100000E-02
     1          8     1     3  0.800000E-02  0.800000E-02  0.100000E-02
     1          8     2     3  0.800000E-02  0.800000E-02  0.100000E-02
     1          8     2     3  0.800000E-02  0.800000E-02  0.100000E-02
     1          8     2     3  0.800000E-02  0.800000E-02  0.100000E-02
     1          8     2     3  0.800000E-02  0.800000E-02  0.100000E-02
     1          8     2     3  0.800000E-02  0.800000E-02  0.100000E-02
     1          9     1     3  0.900000E-02  0.900000E-02  0.100000E-02
     1          9     2     3  0.900000E-02  0.900000E-02  0.100000E-02
     1          9     2     3  0.900000E-02  0.900000E-02  0.100000E-02
     1         10     1     2  0.100000E-01  0.100000E-01  0.100000E-02
     1         10     2     2  0.100000E-01  0.100000E-01  0.100000E-02
     1         10     2     2  0.100000E-01  0.100000E-01  0.100000E-02
     1         10     2     2  0.100000E-01  0.100000E-01  0.100000E-02
     1         10     2     2  0.100000E-01  0.100000E-01  0.100000E-02
     1         10     2     2  0.100000E-01  0.100000E-01  0.100000E-02
     1         10     2     2  0.100000E-01  0.100000E-01  0.100000E-02
     1         10     2     2  0.100000E-01  0.100000E-01  0.100000E-02
     1         10     2     2  0.100000E-01  0.100000E-01  0.100000E-02
     1         10     2     2  0.100000E-01  0.100000E-01  0.100000E-02
     1         10     2     2  0.100000E-01  0.100000E-01  0.100000E-02
     1         10     2     2  0.100000E-01  0.100000E-01  0.100000E-02
     1         10     2     2  0.100000E-01  0.100000E-01  0.100000E-02
     1         10     2     2  0.100000E-01  0.100000E-01  0.100000E-02
     1         10     2     2  0.100000E-01  0.100000E-01  0.100000E-02
     1         10     2     2  0.100000E-01  0.100000E-01  0.100000E-02
     1         10     2     2  0.100000E-01  0.100000E-01  0.100000E-02
     1         10     2     2  0.100000E-01  0.100000E-01  0.100000E-02
     1         10     2     2  0.100000E-01  0.100000E-01  0.100000E-02
     1         10     2     2  0.100000E-01  0.100000E-01  0.100000E-02
     1         10     2     2  0.100000E-01  0.100000E-01  0.100000E-02
     1         10     2     2  0.100000E-01  0.100000E-01  0.100000E-02
     1         10     2     2  0.100000E-01  0.100000E-01  0.100000E-02
     1         10     2     2  0.100000E-01  0.100000E-01  0.100000E-02
     1         10     2     2  0.100000E-01  0.100000E-01  0.100000E-02
     1         10     2     2  0.100000E-01  0.100000E-01  0.100000E-02
     1         10     2     2  0.100000E-01  0.100000E-01  0.100000E-02
     1         10     2     2  0.100000E-01  0.100000E-01  0.100000E-02
     1         10     2     2  0.100000E-01  0.100000E-01  0.100000E-02
     1         10     2     2  0.100000E-01  0.100000E-01  0.100000E-02
     1         10     2     2  0.100000E-01  0.100000E-01  0.100000E-02
     1         10     2     2  0.100000E-01  0.100000E-01  0.100000E-02
     1         10     2     2  0.100000E-01  0.100000E-01  0.100000E-02
     1         10     2     2  0.100000E-01  0.100000E-01  0.100000E-02
     1         10     2     2  0.100000E-01  0.100000E-01  0.100000E-02
     1         10     2     2  0.100000E-01  0.100000E-01  0.100000E-02
     1         10     2     2  0.100000E-01  0.100000E-01  0.100000E-02
     1         10     2     2  0.100000E-01  0.100000E-01  0.100000E-02
     1         10     2     2  0.100000E-01  0.100000E-01  0.100000E-02
     1         10     2     2  0.100000E-01  0.100000E-01  0.100000E-02
     1         10     2     2  0.100000E-01  0.100000E-01  0.100000E-02
     1         10     2     2  0.100000E-01  0.100000E-01  0.100000E-02
     1         10     2     2  0.100000E-01  0.100000E-01  0.100000E-02
     1         10     2     2  0.100000E-01  0.100000E-01  0.100000E-02
     1         10     2     2  0.100000E-01  0.100000E-01  0.100000E-02
     1         10     2     2  0.100000E-01  0.100000E-01  0.100000E-02
     1         10     2     2  0.100000E-01  0.100000E-01  0.100000E-02
     1         10     2     2  0.100000E-01  0.100000E-01  0.100000E-02
     1         10     2     2  0.100000E-01  0.100000E-01  0.100000E-02
     1         10     2     2  0.100000E-01  0.100000E-01  0.100000E-02
     1         10     2     2  0.100000E-01  0.100000E-01  0.100000E-02
     1         10     2     2  0.100000E-01  0.100000E-01  0.100000E-02
     1         10     2     2  0.100000E-01  0.100000E-01  0.100000E-02
     1         10     2     2  0.100000E-01  0.100000E-01  0.100000E-02
     1         10     2     2  0.100000E-01  0.100000E-01  0.100000E-02
     1         11     1     3  0.110000E-01  0.110000E-01  0.100000E-02
     1         11     2     3  0.110000E-01  0.110000E-01  0.100000E-02
     1         11     2     3  0.110000E-01  0.110000E-01  0.100000E-02
     1         11     2     3  0.110000E-01  0.110000E-01  0.100000E-02
     1         11     2     3  0.110000E-01  0.110000E-01  0.100000E-02
     1         11     2     3  0.110000E-01  0.110000E-01  0.100000E-02
     1         11     2     3  0.110000E-01  0.110000E-01  0.100000E-02
     1         11     2     3  0.110000E-01  0.110000E-01  0.100000E-02
     1         11     2     3  0.110000E-01  0.110000E-01  0.100000E-02
     1         11     2     3  0.110000E-01  0.110000E-01  0.100000E-02
     1         11     2     3  0.110000E-01  0.110000E-01  0.100000E-02
     1         11     2     3  0.110000E-01  0.110000E-01  0.100000E-02
     1         11     2     3  0.110000E-01  0.110000E-01  0.100000E-02
     1         11     2     3  0.110000E-01  0.110000E-01  0.100000E-02
     1         11     2     3  0.110000E-01  0.110000E-01  0.100000E-02
     1         11     2     3  0.110000E-01  0.110000E-01  0.100000E-02
     1         12     1     3  0.120000E-01  0.120000E-01  0.100000E-02
     1         12     2     3  0.120000E-01  0.120000E-01  0.100000E-02
     1         12     2     3  0.120000E-01  0.120000E-01  0.100000E-02
     1         12     2     3  0.120000E-01  0.120000E-01  0.100000E-02
     1         12     2     3  0.120000E-01  0.120000E-01  0.100000E-02
     1         12     2     3  0.120000E-01  0.120000E-01  0.100000E-02
     1         12     2     3  0.120000E-01  0.120000E-01  0.100000E-02
     1         12     2     3  0.120000E-01  0.120000E-01  0.100000E-02
     1         12     2     3  0.120000E-01  0.120000E-01  0.100000E-02
     1         13     1     3  0.130000E-01  0.130000E-01  0.100000E-02
     1         13     2     3  0.130000E-01  0.130000E-01  0.100000E-02
     1         13     2     3  0.130000E-01  0.130000E-01  0.100000E-02
     1         14     1     3  0.140000E-01  0.140000E-01  0.100000E-02
     1         14     2     3  0.140000E-01  0.140000E-01  0.100000E-02
     1         14     2     3  0.140000E-01  0.140000E-01  0.100000E-02
     1         14     2     3  0.140000E-01  0.140000E-01  0.100000E-02
     1         14     2     3  0.140000E-01  0.140000E-01  0.100000E-02
     1         15     1     3  0.150000E-01  0.150000E-01  0.100000E-02
     1         15     2     3  0.150000E-01  0.150000E-01  0.100000E-02
     1         15     2     3  0.150000E-01  0.150000E-01  0.100000E-02
     1         15     2     3  0.150000E-01  0.150000E-01  0.100000E-02
     1         16     1     3  0.160000E-01  0.160000E-01  0.100000E-02
     1         16     2     3  0.160000E-01  0.160000E-01  0.100000E-02
     1         16     2     3  0.160000E-01  0.160000E-01  0.100000E-02
     1         16     2     3  0.160000E-01  0.160000E-01  0.100000E-02
     1         16     2     3  0.160000E-01  0.160000E-01  0.100000E-02
     1         16     2     3  0.160000E-01  0.160000E-01  0.100000E-02
     1         17     1     3  0.170000E-01  0.170000E-01  0.100000E-02
     1         17     2     3  0.170000E-01  0.170000E-01  0.100000E-02
     1         17     2     3  0.170000E-01  0.170000E-01  0.100000E-02
     1         17     2     3  0.170000E-01  0.170000E-01  0.100000E-02
     1         18     1     3  0.180000E-01  0.180000E-01  0.100000E-02
     1         18     2     3  0.180000E-01  0.180000E-01  0.100000E-02
     1         18     2     3  0.180000E-01  0.180000E-01  0.100000E-02
     1         18     2     3  0.180000E-01  0.180000E-01  0.100000E-02
     1         18     2     3  0.180000E-01  0.180000E-01  0.100000E-02
     1         19     1     3  0.190000E-01  0.190000E-01  0.100000E-02
     1         19     2     3  0.190000E-01  0.190000E-01  0.100000E-02
     1         19     2     3  0.190000E-01  0.190000E-01  0.100000E-02
     1         20     1     3  0.200000E-01  0.200000E-01  0.100000E-02
     1         20     2     3  0.200000E-01  0.200000E-01  0.100000E-02
     1         20     2     3  0.200000E-01  0.200000E-01  0.100000E-02
     1         21     1     3  0.210000E-01  0.210000E-01  0.100000E-02
     1         21     2     3  0.210000E-01  0.210000E-01  0.100000E-02
     1         21     2     3  0.210000E-01  0.210000E-01  0.100000E-02
     1         21     2     3  0.210000E-01  0.210000E-01  0.100000E-02
     1         21     2     3  0.210000E-01  0.210000E-01  0.100000E-02
     1         21     2     3  0.210000E-01  0.210000E-01  0.100000E-02
     1         21     2     3  0.210000E-01  0.210000E-01  0.100000E-02
     1         21     2     3  0.210000E-01  0.210000E-01  0.100000E-02
     1         21     2     3  0.210000E-01  0.210000E-01  0.100000E-02
     1         21     2     3  0.210000E-01  0.210000E-01  0.100000E-02
     1         21     2     3  0.210000E-01  0.210000E-01  0.100000E-02
     1         21     2     3  0.210000E-01  0.210000E-01  0.100000E-02
     1         21     2     3  0.210000E-01  0.210000E-01  0.100000E-02
     1         21     2     3  0.210000E-01  0.210000E-01  0.100000E-02
     1         21     2     3  0.210000E-01  0.210000E-01  0.100000E-02
     1         22     1     3  0.220000E-01  0.220000E-01  0.100000E-02
     1         22     2     3  0.220000E-01  0.220000E-01  0.100000E-02
     1         23     1     3  0.230000E-01  0.230000E-01  0.100000E-02
     1         23     2     3  0.230000E-01  0.230000E-01  0.100000E-02
     1         23     2     3  0.230000E-01  0.230000E-01  0.100000E-02
     1         23     2     3  0.230000E-01  0.230000E-01  0.100000E-02
     1         23     2     3  0.230000E-01  0.230000E-01  0.100000E-02
     1         23     2     3  0.230000E-01  0.230000E-01  0.100000E-02
     1         23     2     3  0.230000E-01  0.230000E-01  0.100000E-02
     1         24     1     3  0.240000E-01  0.240000E-01  0.100000E-02
     1         24     2     3  0.240000E-01  0.240000E-01  0.100000E-02
     1         24     2     3  0.240000E-01  0.240000E-01  0.100000E-02
     1         24     2     3  0.240000E-01  0.240000E-01  0.100000E-02
     1         24     2     3  0.240000E-01  0.240000E-01  0.100000E-02
     1         24     2     3  0.240000E-01  0.240000E-01  0.100000E-02
     1         24     2     3  0.240000E-01  0.240000E-01  0.100000E-02
     1         24     2     3  0.240000E-01  0.240000E-01  0.100000E-02
     1         24     2     3  0.240000E-01  0.240000E-01  0.100000E-02
     1         24     2     3  0.240000E-01  0.240000E-01  0.100000E-02
     1         24     2     3  0.240000E-01  0.240000E-01  0.100000E-02
     1         24     2     3  0.240000E-01  0.240000E-01  0.100000E-02
     1         24     2     3  0.240000E-01  0.240000E-01  0.100000E-02
     1         24     2     3  0.240000E-01  0.240000E-01  0.100000E-02
     1         24     2     3  0.240000E-01  0.240000E-01  0.100000E-02
     1         24     2     3  0.240000E-01  0.240000E-01  0.100000E-02
     1         24     2     3  0.240000E-01  0.240000E-01  0.100000E-02
     1         24     2     3  0.240000E-01  0.240000E-01  0.100000E-02
     1         24     2     3  0.240000E-01  0.240000E-01  0.100000E-02
     1         24     2     3  0.240000E-01  0.240000E-01  0.100000E-02
     1         24     2     3  0.240000E-01  0.240000E-01  0.100000E-02
     1         24     2     3  0.240000E-01  0.240000E-01  0.100000E-02
     1         25     1     3  0.250000E-01  0.250000E-01  0.100000E-02
     1         25     2     3  0.250000E-01  0.250000E-01  0.100000E-02
     1         25     2     3  0.250000E-01  0.250000E-01  0.100000E-02
     1         25     2     3  0.250000E-01  0.250000E-01  0.100000E-02
     1         25     2     3  0.250000E-01  0.250000E-01  0.100000E-02
     1         25     2     3  0.250000E-01  0.250000E-01  0.100000E-02
     1         25     2     3  0.250000E-01  0.250000E-01  0.100000E-02
     1         25     2     3  0.250000E-01  0.250000E-01  0.100000E-02
     1         25     2     3  0.250000E-01  0.250000E-01  0.100000E-02
     1         25     2     3  0.250000E-01  0.250000E-01  0.100000E-02
     1         25     2     3  0.250000E-01  0.250000E-01  0.100000E-02
     1         25     2     3  0.250000E-01  0.250000E-01  0.100000E-02
     1         25     2     3  0.250000E-01  0.250000E-01  0.100000E-02
     1         25     2     3  0.250000E-01  0.250000E-01  0.100000E-02
     1         25     2     3  0.250000E-01  0.250000E-01  0.100000E-02
     1         25     2     3  0.250000E-01  0.250000E-01  0.100000E-02
     1         25     2     3  0.250000E-01  0.250000E-01  0.100000E-02
     1         25     2     3  0.250000E-01  0.250000E-01  0.100000E-02
     1         25     2     3  0.250000E-01  0.250000E-01  0.100000E-02
     1         26     1     3  0.260000E-01  0.260000E-01  0.100000E-02
     1         26     2     3  0.260000E-01  0.260000E-01  0.100000E-02
     1         26     2     3  0.260000E-01  0.260000E-01  0.100000E-02
     1         26     2     3  0.260000E-01  0.260000E-01  0.100000E-02
     1         26     2     3  0.260000E-01  0.260000E-01  0.100000E-02
     1         26     2     3  0.260000E-01  0.260000E-01  0.100000E-02
     1         26     2     3  0.260000E-01  0.260000E-01  0.100000E-02
     1         26     2     3  0.260000E-01  0.260000E-01  0.100000E-02
     1         26     2     3  0.260000E-01  0.260000E-01  0.100000E-02
     1         26     2     3  0.260000E-01  0.260000E-01  0.100000E-02
     1         26     2     3  0.260000E-01  0.260000E-01  0.100000E-02
     1         26     2     3  0.260000E-01  0.260000E-01  0.100000E-02
     1         26     2     3  0.260000E-01  0.260000E-01  0.100000E-02
     1         26     2     3  0.260000E-01  0.260000E-01  0.100000E-02
     1         26     2     3  0.260000E-01  0.260000E-01  0.100000E-02
     1         26     2     3  0.260000E-01  0.260000E-01  0.100000E-02
     1         26     2     3  0.260000E-01  0.260000E-01  0.100000E-02
     1         26     2     3  0.260000E-01  0.260000E-01  0.100000E-02
     1         26     2     3  0.260000E-01  0.260000E-01  0.100000E-02
     1         26     2     3  0.260000E-01  0.260000E-01  0.100000E-02
     1         26     2     3  0.260000E-01  0.260000E-01  0.100000E-02
     1         26     2     3  0.260000E-01  0.260000E-01  0.100000E-02
     1         27     1     3  0.270000E-01  0.270000E-01  0.100000E-02
     1         27     2     3  0.270000E-01  0.270000E-01  0.100000E-02
     1         27     2     3  0.270000E-01  0.270000E-01  0.100000E-02
     1         27     2     3  0.270000E-01  0.270000E-01  0.100000E-02
     1         28     1     3  0.280000E-01  0.280000E-01  0.100000E-02
     1         28     2     3  0.280000E-01  0.280000E-01  0.100000E-02
     1         28     2     3  0.280000E-01  0.280000E-01  0.100000E-02
     1         28     2     3  0.280000E-01  0.280000E-01  0.100000E-02
     1         29     1     3  0.290000E-01  0.290000E-01  0.100000E-02
     1         29     2     3  0.290000E-01  0.290000E-01  0.100000E-02
     1         29     2     3  0.290000E-01  0.290000E-01  0.100000E-02
     1         29     2     3  0.290000E-01  0.290000E-01  0.100000E-02
     1         29     2     3  0.290000E-01  0.290000E-01  0.100000E-02
     1         30     1     3  0.300000E-01  0.300000E-01  0.100000E-02
     1         30     2     3  0.300000E-01  0.300000E-01  0.100000E-02
     1         30     2     3  0.300000E-01  0.300000E-01  0.100000E-02
     1         30     2     3  0.300000E-01  0.300000E-01  0.100000E-02
     1         30     2     3  0.300000E-01  0.300000E-01  0.100000E-02
     1         30     2     3  0.300000E-01  0.300000E-01  0.100000E-02
     1         30     2     3  0.300000E-01  0.300000E-01  0.100000E-02
     1         30     2     3  0.300000E-01  0.300000E-01  0.100000E-02
     1         30     2     3  0.300000E-01  0.300000E-01  0.100000E-02
     1         31     1     3  0.310000E-01  0.310000E-01  0.100000E-02
     1         31     2     3  0.310000E-01  0.310000E-01  0.100000E-02
     1         31     2     3  0.310000E-01  0.310000E-01  0.100000E-02
     1         31     2     3  0.310000E-01  0.310000E-01  0.100000E-02
     1         31     2     3  0.310000E-01  0.310000E-01  0.100000E-02
     1         31     2     3  0.310000E-01  0.310000E-01  0.100000E-02
     1         31     2     3  0.310000E-01  0.310000E-01  0.100000E-02
     1         32     1     3  0.320000E-01  0.320000E-01  0.100000E-02
     1         32     2     3  0.320000E-01  0.320000E-01  0.100000E-02
     1         32     2     3  0.320000E-01  0.320000E-01  0.100000E-02
     1         32     2     3  0.320000E-01  0.320000E-01  0.100000E-02
     1         32     2     3  0.320000E-01  0.320000E-01  0.100000E-02
     1         32     2     3  0.320000E-01  0.320000E-01  0.100000E-02
     1         32     2     3  0.320000E-01  0.320000E-01  0.100000E-02
     1         32     2     3  0.320000E-01  0.320000E-01  0.100000E-02
     1         32     2     3  0.320000E-01  0.320000E-01  0.100000E-02
     1         32     2     3  0.320000E-01  0.320000E-01  0.100000E-02
     1         32     2     3  0.320000E-01  0.320000E-01  0.100000E-02
     1         32     2     3  0.320000E-01  0.320000E-01  0.100000E-02
     1         32     2     3  0.320000E-01  0.320000E-01  0.100000E-02
     1         32     2     3  0.320000E-01  0.320000E-01  0.100000E-02
     1         32     2     3  0.320000E-01  0.320000E-01  0.100000E-02
     1         32     2     3  0.320000E-01  0.320000E-01  0.100000E-02
     1         32     2     3  0.320000E-01  0.320000E-01  0.100000E-02
     1         32     2     3  0.320000E-01  0.320000E-01  0.100000E-02
     1         32     2     3  0.320000E-01  0.320000E-01  0.100000E-02
     1         32     2     3  0.320000E-01  0.320000E-01  0.100000E-02
     1         33     1     3  0.330000E-01  0.330000E-01  0.100000E-02
     1         33     2     3  0.330000E-01  0.330000E-01  0.100000E-02
     1         33     2     3  0.330000E-01  0.330000E-01  0.100000E-02
     1         34     1     3  0.340000E-01  0.340000E-01  0.100000E-02
     1         34     2     3  0.340000E-01  0.340000E-01  0.100000E-02
     1         34     2     3  0.340000E-01  0.340000E-01  0.100000E-02
     1         34     2     3  0.340000E-01  0.340000E-01  0.100000E-02
     1         34     2     3  0.340000E-01  0.340000E-01  0.100000E-02
     1         34     2     3  0.340000E-01  0.340000E-01  0.100000E-02
     1         35     1     3  0.350000E-01  0.350000E-01  0.100000E-02
     1         35     2     3  0.350000E-01  0.350000E-01  0.100000E-02
     1         35     2     3  0.350000E-01  0.350000E-01  0.100000E-02
     1         35     2     3  0.350000E-01  0.350000E-01  0.100000E-02
     1         36     1     3  0.360000E-01  0.360000E-01  0.100000E-02
     1         36     2     3  0.360000E-01  0.360000E-01  0.100000E-02
     1         36     2     3  0.360000E-01  0.360000E-01  0.100000E-02
     1         36     2     3  0.360000E-01  0.360000E-01  0.100000E-02
     1         36     2     3  0.360000E-01  0.360000E-01  0.100000E-02
     1         36     2     3  0.360000E-01  0.360000E-01  0.100000E-02
     1         36     2     3  0.360000E-01  0.360000E-01  0.100000E-02
     1         37     1     3  0.370000E-01  0.370000E-01  0.100000E-02
     1         37     2     3  0.370000E-01  0.370000E-01  0.100000E-02
     1         38     1     3  0.380000E-01  0.380000E-01  0.100000E-02
     1         38     2     3  0.380000E-01  0.380000E-01  0.100000E-02
     1         38     2     3  0.380000E-01  0.380000E-01  0.100000E-02
     1         38     2     3  0.380000E-01  0.380000E-01  0.100000E-02
     1         39     1     3  0.390000E-01  0.390000E-01  0.100000E-02
     1         39     2     3  0.390000E-01  0.390000E-01  0.100000E-02
     1         39     2     3  0.390000E-01  0.390000E-01  0.100000E-02
     1         39     2     3  0.390000E-01  0.390000E-01  0.100000E-02
     1         40     1     3  0.400000E-01  0.400000E-01  0.100000E-02
     1         40     2     3  0.400000E-01  0.400000E-01  0.100000E-02
     1         40     2     3  0.400000E-01  0.400000E-01  0.100000E-02
     1         40     2     3  0.400000E-01  0.400000E-01  0.100000E-02
     1         40     2     3  0.400000E-01  0.400000E-01  0.100000E-02
     1         41     1     3  0.410000E-01  0.410000E-01  0.100000E-02
     1         41     2     3  0.410000E-01  0.410000E-01  0.100000E-02
     1         41     2     3  0.410000E-01  0.410000E-01  0.100000E-02
     1         41     2     3  0.410000E-01  0.410000E-01  0.100000E-02
     1         41     2     3  0.410000E-01  0.410000E-01  0.100000E-02
     1         41     2     3  0.410000E-01  0.410000E-01  0.100000E-02
     1         41     2     3  0.410000E-01  0.410000E-01  0.100000E-02
     1         42     1     3  0.420000E-01  0.420000E-01  0.100000E-02
     1         42     2     3  0.420000E-01  0.420000E-01  0.100000E-02
     1         42     2     3  0.420000E-01  0.420000E-01  0.100000E-02
     1         42     2     3  0.420000E-01  0.420000E-01  0.100000E-02
     1         42     2     3  0.420000E-01  0.420000E-01  0.100000E-02
     1         42     2     3  0.420000E-01  0.420000E-01  0.100000E-02
     1         42     2     3  0.420000E-01  0.420000E-01  0.100000E-02
     1         42     2     3  0.420000E-01  0.420000E-01  0.100000E-02
     1         42     2     3  0.420000E-01  0.420000E-01  0.100000E-02
     1         42     2     3  0.420000E-01  0.420000E-01  0.100000E-02
     1         43     1     3  0.430000E-01  0.430000E-01  0.100000E-02
     1         43     2     3  0.430000E-01  0.430000E-01  0.100000E-02
     1         43     2     3  0.430000E-01  0.430000E-01  0.100000E-02
     1         43     2     3  0.430000E-01  0.430000E-01  0.100000E-02
     1         43     2     3  0.430000E-01  0.430000E-01  0.100000E-02
     1         43     2     3  0.430000E-01  0.430000E-01  0.100000E-02
     1         43     2     3  0.430000E-01  0.430000E-01  0.100000E-02
     1         43     2     3  0.430000E-01  0.430000E-01  0.100000E-02
     1         44     1     3  0.440000E-01  0.440000E-01  0.100000E-02
     1         44     2     3  0.440000E-01  0.440000E-01  0.100000E-02
     1         44     2     3  0.440000E-01  0.440000E-01  0.100000E-02
     1         44     2     3  0.440000E-01  0.440000E-01  0.100000E-02
     1         44     2     3  0.440000E-01  0.440000E-01  0.100000E-02
     1         44     2     3  0.440000E-01  0.440000E-01  0.100000E-02
     1         44     2     3  0.440000E-01  0.440000E-01  0.100000E-02
     1         44     2     3  0.440000E-01  0.440000E-01  0.100000E-02
     1         44     2     3  0.440000E-01  0.440000E-01  0.100000E-02
     1         44     2     3  0.440000E-01  0.440000E-01  0.100000E-02
     1         44     2     3  0.440000E-01  0.440000E-01  0.100000E-02
     1         44     2     3  0.440000E-01  0.440000E-01  0.100000E-02
     1         44     2     3  0.440000E-01  0.440000E-01  0.100000E-02
     1         44     2     3  0.440000E-01  0.440000E-01  0.100000E-02
     1         45     1     3  0.450000E-01  0.450000E-01  0.100000E-02
     1         45     2     3  0.450000E-01  0.450000E-01  0.100000E-02
     1         45     2     3  0.450000E-01  0.450000E-01  0.100000E-02
     1         45     2     3  0.450000E-01  0.450000E-01  0.100000E-02
     1         45     2     3  0.450000E-01  0.450000E-01  0.100000E-02
     1         46     1     3  0.460000E-01  0.460000E-01  0.100000E-02
     1         46     2     3  0.460000E-01  0.460000E-01  0.100000E-02
     1         46     2     3  0.460000E-01  0.460000E-01  0.100000E-02
     1         46     2     3  0.460000E-01  0.460000E-01  0.100000E-02
     1         46     2     3  0.460000E-01  0.460000E-01  0.100000E-02
     1         47     1     3  0.470000E-01  0.470000E-01  0.100000E-02
     1         47     2     3  0.470000E-01  0.470000E-01  0.100000E-02
     1         47     2     3  0.470000E-01  0.470000E-01  0.100000E-02
     1         47     2     3  0.470000E-01  0.470000E-01  0.100000E-02
     1         47     2     3  0.470000E-01  0.470000E-01  0.100000E-02
     1         47     2     3  0.470000E-01  0.470000E-01  0.100000E-02
     1         47     2     3  0.470000E-01  0.470000E-01  0.100000E-02
     1         47     2     3  0.470000E-01  0.470000E-01  0.100000E-02
     1         48     1     3  0.480000E-01  0.480000E-01  0.100000E-02
     1         48     2     3  0.480000E-01  0.480000E-01  0.100000E-02
     1         48     2     3  0.480000E-01  0.480000E-01  0.100000E-02
     1         48     2     3  0.480000E-01  0.480000E-01  0.100000E-02
     1         49     1     3  0.490000E-01  0.490000E-01  0.100000E-02
     1         49     2     3  0.490000E-01  0.490000E-01  0.100000E-02
     1         49     2     3  0.490000E-01  0.490000E-01  0.100000E-02
     1         49     2     3  0.490000E-01  0.490000E-01  0.100000E-02
     1         49     2     3  0.490000E-01  0.490000E-01  0.100000E-02
     1         49     2     3  0.490000E-01  0.490000E-01  0.100000E-02
     1         50     1     3  0.500000E-01  0.500000E-01  0.100000E-02
     1         50     2     3  0.500000E-01  0.500000E-01  0.100000E-02
     1         50     2     3  0.500000E-01  0.500000E-01  0.100000E-02
     1         50     2     3  0.500000E-01  0.500000E-01  0.100000E-02
     1         50     2     3  0.500000E-01  0.500000E-01  0.100000E-02
     1         50     2     3  0.500000E-01  0.500000E-01  0.100000E-02
     1         50     2     3  0.500000E-01  0.500000E-01  0.100000E-02
     1         50     2     3  0.500000E-01  0.500000E-01  0.100000E-02
     1         51     1     3  0.510000E-01  0.510000E-01  0.100000E-02
     1         51     2     3  0.510000E-01  0.510000E-01  0.100000E-02
     1         51     2     3  0.510000E-01  0.510000E-01  0.100000E-02
     1         51     2     3  0.510000E-01  0.510000E-01  0.100000E-02
     1         51     2     3  0.510000E-01  0.510000E-01  0.100000E-02
     1         51     2     3  0.510000E-01  0.510000E-01  0.100000E-02
     1         51     2     3  0.510000E-01  0.510000E-01  0.100000E-02
     1         51     2     3  0.510000E-01  0.510000E-01  0.100000E-02
     1         52     1     3  0.520000E-01  0.520000E-01  0.100000E-02
     1         52     2     3  0.520000E-01  0.520000E-01  0.100000E-02
     1         52     2     3  0.520000E-01  0.520000E-01  0.100000E-02
     1         52     2     3  0.520000E-01  0.520000E-01  0.100000E-02
     1         52     2     3  0.520000E-01  0.520000E-01  0.100000E-02
     1         52     2     3  0.520000E-01  0.520000E-01  0.100000E-02
     1         52     2     3  0.520000E-01  0.520000E-01  0.100000E-02
     1         52     2     3  0.520000E-01  0.520000E-01  0.100000E-02
     1         52     2     3  0.520000E-01  0.520000E-01  0.100000E-02
     1         53     1     3  0.530000E-01  0.530000E-01  0.100000E-02
     1         53     2     3  0.530000E-01  0.530000E-01  0.100000E-02
     1         53     2     3  0.530000E-01  0.530000E-01  0.100000E-02
     1         53     2     3  0.530000E-01  0.530000E-01  0.100000E-02
     1         53     2     3  0.530000E-01  0.530000E-01  0.100000E-02
     1         53     2     3  0.530000E-01  0.530000E-01  0.100000E-02
     1         53     2     3  0.530000E-01  0.530000E-01  0.100000E-02
     1         54     1     3  0.540000E-01  0.540000E-01  0.100000E-02
     1         54     2     3  0.540000E-01  0.540000E-01  0.100000E-02
     1         54     2     3  0.540000E-01  0.540000E-01  0.100000E-02
     1         54     2     3  0.540000E-01  0.540000E-01  0.100000E-02
     1         54     2     3  0.540000E-01  0.540000E-01  0.100000E-02
     1         54     2     3  0.540000E-01  0.540000E-01  0.100000E-02
     1         54     2     3  0.540000E-01  0.540000E-01  0.100000E-02
     1         54     2     3  0.540000E-01  0.540000E-01  0.100000E-02
     1         54     2     3  0.540000E-01  0.540000E-01  0.100000E-02
     1         54     2     3  0.540000E-01  0.540000E-01  0.100000E-02
     1         55     1     3  0.550000E-01  0.550000E-01  0.100000E-02
     1         55     2     3  0.550000E-01  0.550000E-01  0.100000E-02
     1         55     2     3  0.550000E-01  0.550000E-01  0.100000E-02
     1         55     2     3  0.550000E-01  0.550000E-01  0.100000E-02
     1         55     2     3  0.550000E-01  0.550000E-01  0.100000E-02
     1         55     2     3  0.550000E-01  0.550000E-01  0.100000E-02
     1         55     2     3  0.550000E-01  0.550000E-01  0.100000E-02
     1         55     2     3  0.550000E-01  0.550000E-01  0.100000E-02
     1         56     1     3  0.560000E-01  0.560000E-01  0.100000E-02
     1         56     2     3  0.560000E-01  0.560000E-01  0.100000E-02
     1         56     2     3  0.560000E-01  0.560000E-01  0.100000E-02
     1         56     2     3  0.560000E-01  0.560000E-01  0.100000E-02
     1         56     2     3  0.560000E-01  0.560000E-01  0.100000E-02
     1         56     2     3  0.560000E-01  0.560000E-01  0.100000E-02
     1         56     2     3  0.560000E-01  0.560000E-01  0.100000E-02
     1         57     1     3  0.570000E-01  0.570000E-01  0.100000E-02
     1         57     2     3  0.570000E-01  0.570000E-01  0.100000E-02
     1         57     2     3  0.570000E-01  0.570000E-01  0.100000E-02
     1         57     2     3  0.570000E-01  0.570000E-01  0.100000E-02
     1         57     2     3  0.570000E-01  0.570000E-01  0.100000E-02
     1         57     2     3  0.570000E-01  0.570000E-01  0.100000E-02
     1         57     2     3  0.570000E-01  0.570000E-01  0.100000E-02
     1         57     2     3  0.570000E-01  0.570000E-01  0.100000E-02
     1         58     1     3  0.580000E-01  0.580000E-01  0.100000E-02
     1         58     2     3  0.580000E-01  0.580000E-01  0.100000E-02
     1         58     2     3  0.580000E-01  0.580000E-01  0.100000E-02
     1         58     2     3  0.580000E-01  0.580000E-01  0.100000E-02
     1         58     2     3  0.580000E-01  0.580000E-01  0.100000E-02
     1         58     2     3  0.580000E-01  0.580000E-01  0.100000E-02
     1         59     1     2  0.590000E-01  0.590000E-01  0.100000E-02
     1         59     2     2  0.590000E-01  0.590000E-01  0.100000E-02
     1         59     2     2  0.590000E-01  0.590000E-01  0.100000E-02
     1         59     2     2  0.590000E-01  0.590000E-01  0.100000E-02
     1         59     2     2  0.590000E-01  0.590000E-01  0.100000E-02
     1         59     2     2  0.590000E-01  0.590000E-01  0.100000E-02
     1         59     2     2  0.590000E-01  0.590000E-01  0.100000E-02
     1         59     2     2  0.590000E-01  0.590000E-01  0.100000E-02
     1         59     2     2  0.590000E-01  0.590000E-01  0.100000E-02
     1         59     2     2  0.590000E-01  0.590000E-01  0.100000E-02
     1         59     2     2  0.590000E-01  0.590000E-01  0.100000E-02
     1         59     2     2  0.590000E-01  0.590000E-01  0.100000E-02
     1         60     1     2  0.600000E-01  0.600000E-01  0.100000E-02
     1         60     2     2  0.600000E-01  0.600000E-01  0.100000E-02
     1         60     2     2  0.600000E-01  0.600000E-01  0.100000E-02
     1         60     2     2  0.600000E-01  0.600000E-01  0.100000E-02
     1         61     1     2  0.610000E-01  0.610000E-01  0.100000E-02
     1         61     2     2  0.610000E-01  0.610000E-01  0.100000E-02
     1         61     2     2  0.610000E-01  0.610000E-01  0.100000E-02
     1         61     2     2  0.610000E-01  0.610000E-01  0.100000E-02
     1         62     1     2  0.620000E-01  0.620000E-01  0.100000E-02
     1         62     2     2  0.620000E-01  0.620000E-01  0.100000E-02
     1         62     2     2  0.620000E-01  0.620000E-01  0.100000E-02
     1         62     2     2  0.620000E-01  0.620000E-01  0.100000E-02
     1         62     2     2  0.620000E-01  0.620000E-01  0.100000E-02
     1         62     2     2  0.620000E-01  0.620000E-01  0.100000E-02
     1         63     1     2  0.630000E-01  0.630000E-01  0.100000E-02
     1         63     2     2  0.630000E-01  0.630000E-01  0.100000E-02
     1         63     2     2  0.630000E-01  0.630000E-01  0.100000E-02
     1         63     2     2  0.630000E-01  0.630000E-01  0.100000E-02
     1         63     2     2  0.630000E-01  0.630000E-01  0.100000E-02
     1         64     1     2  0.640000E-01  0.640000E-01  0.100000E-02
     1         64     2     2  0.640000E-01  0.640000E-01  0.100000E-02
     1         64     2     2  0.640000E-01  0.640000E-01  0.100000E-02
     1         64     2     2  0.640000E-01  0.640000E-01  0.100000E-02
     1         65     1     2  0.650000E-01  0.650000E-01  0.100000E-02
     1         65     2     2  0.650000E-01  0.650000E-01  0.100000E-02
     1         65     2     2  0.650000E-01  0.650000E-01  0.100000E-02
     1         65     2     2  0.650000E-01  0.650000E-01  0.100000E-02
     1         66     1     2  0.660000E-01  0.660000E-01  0.100000E-02
     1         66     2     2  0.660000E-01  0.660000E-01  0.100000E-02
     1         66     2     2  0.660000E-01  0.660000E-01  0.100000E-02
     1         66     2     2  0.660000E-01  0.660000E-01  0.100000E-02
     1         66     2     2  0.660000E-01  0.660000E-01  0.100000E-02
     1         66     2     2  0.660000E-01  0.660000E-01  0.100000E-02
     1         66     2     2  0.660000E-01  0.660000E-01  0.100000E-02
     1         67     1     2  0.670000E-01  0.670000E-01  0.100000E-02
     1         67     2     2  0.670000E-01  0.670000E-01  0.100000E-02
     1         67     2     2  0.670000E-01  0.670000E-01  0.100000E-02
     1         67     2     2  0.670000E-01  0.670000E-01  0.100000E-02
     1         67     2     2  0.670000E-01  0.670000E-01  0.100000E-02
     1         67     2     2  0.670000E-01  0.670000E-01  0.100000E-02
     1         67     2     2  0.670000E-01  0.670000E-01  0.100000E-02
     1         67     2     2  0.670000E-01  0.670000E-01  0.100000E-02
     1         67     2     2  0.670000E-01  0.670000E-01  0.100000E-02
     1         67     2     2  0.670000E-01  0.670000E-01  0.100000E-02
     1         67     2     2  0.670000E-01  0.670000E-01  0.100000E-02
     1         68     1     2  0.680000E-01  0.680000E-01  0.100000E-02
     1         68     2     2  0.680000E-01  0.680000E-01  0.100000E-02
     1         68     2     2  0.680000E-01  0.680000E-01  0.100000E-02
     1         68     2     2  0.680000E-01  0.680000E-01  0.100000E-02
     1         68     2     2  0.680000E-01  0.680000E-01  0.100000E-02
     1         68     2     2  0.680000E-01  0.680000E-01  0.100000E-02
     1         69     1     2  0.690000E-01  0.690000E-01  0.100000E-02
     1         69     2     2  0.690000E-01  0.690000E-01  0.100000E-02
     1         69     2     2  0.690000E-01  0.690000E-01  0.100000E-02
     1         69     2     2  0.690000E-01  0.690000E-01  0.100000E-02
     1         69     2     2  0.690000E-01  0.690000E-01  0.100000E-02
     1         69     2     2  0.690000E-01  0.690000E-01  0.100000E-02
     1         69     2     2  0.690000E-01  0.690000E-01  0.100000E-02
     1         70     1     2  0.700000E-01  0.700000E-01  0.100000E-02
     1         70     2     2  0.700000E-01  0.700000E-01  0.100000E-02
     1         70     2     2  0.700000E-01  0.700000E-01  0.100000E-02
     1         70     2     2  0.700000E-01  0.700000E-01  0.100000E-02
     1         70     2     2  0.700000E-01  0.700000E-01  0.100000E-02
     1         71     1     2  0.710000E-01  0.710000E-01  0.100000E-02
     1         71     2     2  0.710000E-01  0.710000E-01  0.100000E-02
     1         71     2     2  0.710000E-01  0.710000E-01  0.100000E-02
     1         71     2     2  0.710000E-01  0.710000E-01  0.100000E-02
     1         71     2     2  0.710000E-01  0.710000E-01  0.100000E-02
     1         71     2     2  0.710000E-01  0.710000E-01  0.100000E-02
     1         72     1     2  0.720000E-01  0.720000E-01  0.100000E-02
     1         72     2     2  0.720000E-01  0.720000E-01  0.100000E-02
     1         72     2     2  0.720000E-01  0.720000E-01  0.100000E-02
     1         72     2     2  0.720000E-01  0.720000E-01  0.100000E-02
     1         72     2     2  0.720000E-01  0.720000E-01  0.100000E-02
     1         72     2     2  0.720000E-01  0.720000E-01  0.100000E-02
     1         72     2     2  0.720000E-01  0.720000E-01  0.100000E-02
     1         72     2     2  0.720000E-01  0.720000E-01  0.100000E-02
     1         72     2     2  0.720000E-01  0.720000E-01  0.100000E-02
     1         72     2     2  0.720000E-01  0.720000E-01  0.100000E-02
     1         72     2     2  0.720000E-01  0.720000E-01  0.100000E-02
     1         72     2     2  0.720000E-01  0.720000E-01  0.100000E-02
     1         72     2     2  0.720000E-01  0.720000E-01  0.100000E-02
     1         72     2     2  0.720000E-01  0.720000E-01  0.100000E-02
     1         72     2     2  0.720000E-01  0.720000E-01  0.100000E-02
     1         72     2     2  0.720000E-01  0.720000E-01  0.100000E-02
     1         72     2     2  0.720000E-01  0.720000E-01  0.100000E-02
     1         72     2     2  0.720000E-01  0.720000E-01  0.100000E-02
     1         72     2     2  0.720000E-01  0.720000E-01  0.100000E-02
     1         72     2     2  0.720000E-01  0.720000E-01  0.100000E-02
     1         72     2     2  0.720000E-01  0.720000E-01  0.100000E-02
     1         72     2     2  0.720000E-01  0.720000E-01  0.100000E-02
     1         72     2     2  0.720000E-01  0.720000E-01  0.100000E-02
     1         72     2     2  0.720000E-01  0.720000E-01  0.100000E-02
     1         72     2     2  0.720000E-01  0.720000E-01  0.100000E-02
     1         72     2     2  0.720000E-01  0.720000E-01  0.100000E-02
     1         72     2     2  0.720000E-01  0.720000E-01  0.100000E-02
     1         72     2     2  0.720000E-01  0.720000E-01  0.100000E-02
     1         72     2     2  0.720000E-01  0.720000E-01  0.100000E-02
     1         73     1     2  0.730000E-01  0.730000E-01  0.100000E-02
     1         73     2     2  0.730000E-01  0.730000E-01  0.100000E-02
     1         73     2     2  0.730000E-01  0.730000E-01  0.100000E-02
     1         73     2     2  0.730000E-01  0.730000E-01  0.100000E-02
     1         73     2     2  0.730000E-01  0.730000E-01  0.100000E-02
     1         74     1     2  0.740000E-01  0.740000E-01  0.100000E-02
     1         74     2     2  0.740000E-01  0.740000E-01  0.100000E-02
     1         74     2     2  0.740000E-01  0.740000E-01  0.100000E-02
     1         74     2     2  0.740000E-01  0.740000E-01  0.100000E-02
     1         75     1     2  0.750000E-01  0.750000E-01  0.100000E-02
     1         75     2     2  0.750000E-01  0.750000E-01  0.100000E-02
     1         75     2     2  0.750000E-01  0.750000E-01  0.100000E-02
     1         75     2     2  0.750000E-01  0.750000E-01  0.100000E-02
     1         75     2     2  0.750000E-01  0.750000E-01  0.100000E-02
     1         76     1     2  0.760000E-01  0.760000E-01  0.100000E-02
     1         76     2     2  0.760000E-01  0.760000E-01  0.100000E-02
     1         76     2     2  0.760000E-01  0.760000E-01  0.100000E-02
     1         77     1     2  0.770000E-01  0.770000E-01  0.100000E-02
     1         77     2     2  0.770000E-01  0.770000E-01  0.100000E-02
     1         77     2     2  0.770000E-01  0.770000E-01  0.100000E-02
     1         77     2     2  0.770000E-01  0.770000E-01  0.100000E-02
     1         77     2     2  0.770000E-01  0.770000E-01  0.100000E-02
     1         78     1     2  0.780000E-01  0.780000E-01  0.100000E-02
     1         78     2     2  0.780000E-01  0.780000E-01  0.100000E-02
     1         78     2     2  0.780000E-01  0.780000E-01  0.100000E-02
     1         78     2     2  0.780000E-01  0.780000E-01  0.100000E-02
     1         78     2     2  0.780000E-01  0.780000E-01  0.100000E-02
     1         78     2     2  0.780000E-01  0.780000E-01  0.100000E-02
     1         78     2     2  0.780000E-01  0.780000E-01  0.100000E-02
     1         79     1     2  0.790000E-01  0.790000E-01  0.100000E-02
     1         79     2     2  0.790000E-01  0.790000E-01  0.100000E-02
     1         79     2     2  0.790000E-01  0.790000E-01  0.100000E-02
     1         79     2     2  0.790000E-01  0.790000E-01  0.100000E-02
     1         79     2     2  0.790000E-01  0.790000E-01  0.100000E-02
     1         79     2     2  0.790000E-01  0.790000E-01  0.100000E-02
     1         79     2     2  0.790000E-01  0.790000E-01  0.100000E-02
     1         79     2     2  0.790000E-01  0.790000E-01  0.100000E-02
     1         79     2     2  0.790000E-01  0.790000E-01  0.100000E-02
     1         79     2     2  0.790000E-01  0.790000E-01  0.100000E-02
     1         79     2     2  0.790000E-01  0.790000E-01  0.100000E-02
     1         79     2     2  0.790000E-01  0.790000E-01  0.100000E-02
     1         79     2     2  0.790000E-01  0.790000E-01  0.100000E-02
     1         79     2     2  0.790000E-01  0.790000E-01  0.100000E-02
     1         79     2     2  0.790000E-01  0.790000E-01  0.100000E-02
     1         80     1     2  0.800000E-01  0.800000E-01  0.100000E-02
     1         80     2     2  0.800000E-01  0.800000E-01  0.100000E-02
     1         80     2     2  0.800000E-01  0.800000E-01  0.100000E-02
     1         80     2     2  0.800000E-01  0.800000E-01  0.100000E-02
     1         80     2     2  0.800000E-01  0.800000E-01  0.100000E-02
     1         80     2     2  0.800000E-01  0.800000E-01  0.100000E-02
     1         80     2     2  0.800000E-01  0.800000E-01  0.100000E-02
     1         80     2     2  0.800000E-01  0.800000E-01  0.100000E-02
     1         80     2     2  0.800000E-01  0.800000E-01  0.100000E-02
     1         80     2     2  0.800000E-01  0.800000E-01  0.100000E-02
     1         80     2     2  0.800000E-01  0.800000E-01  0.100000E-02
     1         80     2     2  0.800000E-01  0.800000E-01  0.100000E-02
     1         80     2     2  0.800000E-01  0.800000E-01  0.100000E-02
     1         80     2     2  0.800000E-01  0.800000E-01  0.100000E-02
     1         80     2     2  0.800000E-01  0.800000E-01  0.100000E-02
     1         80     2     2  0.800000E-01  0.800000E-01  0.100000E-02
     1         80     2     2  0.800000E-01  0.800000E-01  0.100000E-02
     1         80     2     2  0.800000E-01  0.800000E-01  0.100000E-02
     1         80     2     2  0.800000E-01  0.800000E-01  0.100000E-02
     1         81     1     2  0.810000E-01  0.810000E-01  0.100000E-02
     1         81     2     2  0.810000E-01  0.810000E-01  0.100000E-02
     1         81     2     2  0.810000E-01  0.810000E-01  0.100000E-02
     1         81     2     2  0.810000E-01  0.810000E-01  0.100000E-02
     1         81     2     2  0.810000E-01  0.810000E-01  0.100000E-02
     1         81     2     2  0.810000E-01  0.810000E-01  0.100000E-02
     1         81     2     2  0.810000E-01  0.810000E-01  0.100000E-02
     1         81     2     2  0.810000E-01  0.810000E-01  0.100000E-02
     1         81     2     2  0.810000E-01  0.810000E-01  0.100000E-02
     1         81     2     2  0.810000E-01  0.810000E-01  0.100000E-02
     1         81     2     2  0.810000E-01  0.810000E-01  0.100000E-02
     1         81     2     2  0.810000E-01  0.810000E-01  0.100000E-02
     1         81     2     2  0.810000E-01  0.810000E-01  0.100000E-02
     1         81     2     2  0.810000E-01  0.810000E-01  0.100000E-02
     1         82     1     2  0.820000E-01  0.820000E-01  0.100000E-02
     1         82     2     2  0.820000E-01  0.820000E-01  0.100000E-02
     1         82     2     2  0.820000E-01  0.820000E-01  0.100000E-02
     1         82     2     2  0.820000E-01  0.820000E-01  0.100000E-02
     1         82     2     2  0.820000E-01  0.820000E-01  0.100000E-02
     1         82     2     2  0.820000E-01  0.820000E-01  0.100000E-02
     1         82     2     2  0.820000E-01  0.820000E-01  0.100000E-02
     1         82     2     2  0.820000E-01  0.820000E-01  0.100000E-02
     1         82     2     2  0.820000E-01  0.820000E-01  0.100000E-02
     1         82     2     2  0.820000E-01  0.820000E-01  0.100000E-02
     1         83     1     2  0.830000E-01  0.830000E-01  0.100000E-02
     1         83     2     2  0.830000E-01  0.830000E-01  0.100000E-02
     1         83     2     2  0.830000E-01  0.830000E-01  0.100000E-02
     1         83     2     2  0.830000E-01  0.830000E-01  0.100000E-02
     1         83     2     2  0.830000E-01  0.830000E-01  0.100000E-02
     1         83     2     2  0.830000E-01  0.830000E-01  0.100000E-02
     1         84     1     2  0.840000E-01  0.840000E-01  0.100000E-02
     1         84     2     2  0.840000E-01  0.840000E-01  0.100000E-02
     1         84     2     2  0.840000E-01  0.840000E-01  0.100000E-02
     1         84     2     2  0.840000E-01  0.840000E-01  0.100000E-02
     1         84     2     2  0.840000E-01  0.840000E-01  0.100000E-02
     1         84     2     2  0.840000E-01  0.840000E-01  0.100000E-02
     1         84     2     2  0.840000E-01  0.840000E-01  0.100000E-02
     1         84     2     2  0.840000E-01  0.840000E-01  0.100000E-02
     1         84     2     2  0.840000E-01  0.840000E-01  0.100000E-02
     1         84     2     2  0.840000E-01  0.840000E-01  0.100000E-02
     1         84     2     2  0.840000E-01  0.840000E-01  0.100000E-02
     1         84     2     2  0.840000E-01  0.840000E-01  0.100000E-02
     1         84     2     2  0.840000E-01  0.840000E-01  0.100000E-02
     1         85     1     2  0.850000E-01  0.850000E-01  0.100000E-02
     1         85     2     2  0.850000E-01  0.850000E-01  0.100000E-02
     1         85     2     2  0.850000E-01  0.850000E-01  0.100000E-02
     1         85     2     2  0.850000E-01  0.850000E-01  0.100000E-02
     1         85     2     2  0.850000E-01  0.850000E-01  0.100000E-02
     1         85     2     2  0.850000E-01  0.850000E-01  0.100000E-02
     1         85     2     2  0.850000E-01  0.850000E-01  0.100000E-02
     1         85     2     2  0.850000E-01  0.850000E-01  0.100000E-02
     1         85     2     2  0.850000E-01  0.850000E-01  0.100000E-02
     1         85     2     2  0.850000E-01  0.850000E-01  0.100000E-02
     1         86     1     2  0.860000E-01  0.860000E-01  0.100000E-02
     1         86     2     2  0.860000E-01  0.860000E-01  0.100000E-02
     1         86     2     2  0.860000E-01  0.860000E-01  0.100000E-02
     1         86     2     2  0.860000E-01  0.860000E-01  0.100000E-02
     1         86     2     2  0.860000E-01  0.860000E-01  0.100000E-02
     1         86     2     2  0.860000E-01  0.860000E-01  0.100000E-02
     1         87     1     2  0.870000E-01  0.870000E-01  0.100000E-02
     1         87     2     2  0.870000E-01  0.870000E-01  0.100000E-02
     1         87     2     2  0.870000E-01  0.870000E-01  0.100000E-02
     1         87     2     2  0.870000E-01  0.870000E-01  0.100000E-02
     1         88     1     2  0.880000E-01  0.880000E-01  0.100000E-02
     1         88     2     2  0.880000E-01  0.880000E-01  0.100000E-02
     1         88     2     2  0.880000E-01  0.880000E-01  0.100000E-02
     1         88     2     2  0.880000E-01  0.880000E-01  0.100000E-02
     1         88     2     2  0.880000E-01  0.880000E-01  0.100000E-02
     1         88     2     2  0.880000E-01  0.880000E-01  0.100000E-02
     1         89     1     2  0.890000E-01  0.890000E-01  0.100000E-02
     1         89     2     2  0.890000E-01  0.890000E-01  0.100000E-02
     1         89     2     2  0.890000E-01  0.890000E-01  0.100000E-02
     1         89     2     2  0.890000E-01  0.890000E-01  0.100000E-02
     1         90     1     2  0.900000E-01  0.900000E-01  0.100000E-02
     1         90     2     2  0.900000E-01  0.900000E-01  0.100000E-02
     1         90     2     2  0.900000E-01  0.900000E-01  0.100000E-02
     1         90     2     2  0.900000E-01  0.900000E-01  0.100000E-02
     1         90     2     2  0.900000E-01  0.900000E-01  0.100000E-02
     1         90     2     2  0.900000E-01  0.900000E-01  0.100000E-02
     1         90     2     2  0.900000E-01  0.900000E-01  0.100000E-02
     1         90     2     2  0.900000E-01  0.900000E-01  0.100000E-02
     1         90     2     2  0.900000E-01  0.900000E-01  0.100000E-02
     1         90     2     2  0.900000E-01  0.900000E-01  0.100000E-02
     1         90     2     2  0.900000E-01  0.900000E-01  0.100000E-02
     1         90     2     2  0.900000E-01  0.900000E-01  0.100000E-02
     1         90     2     2  0.900000E-01  0.900000E-01  0.100000E-02
     1         91     1     2  0.910000E-01  0.910000E-01  0.100000E-02
     1         91     2     2  0.910000E-01  0.910000E-01  0.100000E-02
     1         91     2     2  0.910000E-01  0.910000E-01  0.100000E-02
     1         91     2     2  0.910000E-01  0.910000E-01  0.100000E-02
     1         91     2     2  0.910000E-01  0.910000E-01  0.100000E-02
     1         91     2     2  0.910000E-01  0.910000E-01  0.100000E-02
     1         91     2     2  0.910000E-01  0.910000E-01  0.100000E-02
     1         91     2     2  0.910000E-01  0.910000E-01  0.100000E-02
     1         91     2     2  0.910000E-01  0.910000E-01  0.100000E-02
     1         91     2     2  0.910000E-01  0.910000E-01  0.100000E-02
     1         91     2     2  0.910000E-01  0.910000E-01  0.100000E-02
     1         91     2     2  0.910000E-01  0.910000E-01  0.100000E-02
     1         91     2     2  0.910000E-01  0.910000E-01  0.100000E-02
     1         91     2     2  0.910000E-01  0.910000E-01  0.100000E-02
     1         91     2     2  0.910000E-01  0.910000E-01  0.100000E-02
     1         92     1     2  0.920000E-01  0.920000E-01  0.100000E-02
     1         92     2     2  0.920000E-01  0.920000E-01  0.100000E-02
     1         92     2     2  0.920000E-01  0.920000E-01  0.100000E-02
     1         92     2     2  0.920000E-01  0.920000E-01  0.100000E-02
     1         92     2     2  0.920000E-01  0.920000E-01  0.100000E-02
     1         92     2     2  0.920000E-01  0.920000E-01  0.100000E-02
     1         92     2     2  0.920000E-01  0.920000E-01  0.100000E-02
     1         92     2     2  0.920000E-01  0.920000E-01  0.100000E-02
     1         92     2     2  0.920000E-01  0.920000E-01  0.100000E-02
     1         92     2     2  0.920000E-01  0.920000E-01  0.100000E-02
     1         93     1     2  0.930000E-01  0.930000E-01  0.100000E-02
     1         93     2     2  0.930000E-01  0.930000E-01  0.100000E-02
     1         93     2     2  0.930000E-01  0.930000E-01  0.100000E-02
     1         93     2     2  0.930000E-01  0.930000E-01  0.100000E-02
     1         93     2     2  0.930000E-01  0.930000E-01  0.100000E-02
     1         93     2     2  0.930000E-01  0.930000E-01  0.100000E-02
     1         93     2     2  0.930000E-01  0.930000E-01  0.100000E-02
     1         93     2     2  0.930000E-01  0.930000E-01  0.100000E-02
     1         93     2     2  0.930000E-01  0.930000E-01  0.100000E-02
     1         93     2     2  0.930000E-01  0.930000E-01  0.100000E-02
     1         93     2     2  0.930000E-01  0.930000E-01  0.100000E-02
     1         93     2     2  0.930000E-01  0.930000E-01  0.100000E-02
     1         93     2     2  0.930000E-01  0.930000E-01  0.100000E-02
     1         93     2     2  0.930000E-01  0.930000E-01  0.100000E-02
     1         93     2     2  0.930000E-01  0.930000E-01  0.100000E-02
     1         93     2     2  0.930000E-01  0.930000E-01  0.100000E-02
     1         93     2     2  0.930000E-01  0.930000E-01  0.100000E-02
     1         94     1     2  0.940000E-01  0.940000E-01  0.100000E-02
     1         94     2     2  0.940000E-01  0.940000E-01  0.100000E-02
     1         94     2     2  0.940000E-01  0.940000E-01  0.100000E-02
     1         94     2     2  0.940000E-01  0.940000E-01  0.100000E-02
     1         94     2     2  0.940000E-01  0.940000E-01  0.100000E-02
     1         94     2     2  0.940000E-01  0.940000E-01  0.100000E-02
     1         94     2     2  0.940000E-01  0.940000E-01  0.100000E-02
     1         95     1     2  0.950000E-01  0.950000E-01  0.100000E-02
     1         95     2     2  0.950000E-01  0.950000E-01  0.100000E-02
     1         95     2     2  0.950000E-01  0.950000E-01  0.100000E-02
     1         95     2     2  0.950000E-01  0.950000E-01  0.100000E-02
     1         95     2     2  0.950000E-01  0.950000E-01  0.100000E-02
     1         96     1     2  0.960000E-01  0.960000E-01  0.100000E-02
     1         96     2     2  0.960000E-01  0.960000E-01  0.100000E-02
     1         96     2     2  0.960000E-01  0.960000E-01  0.100000E-02
     1         96     2     2  0.960000E-01  0.960000E-01  0.100000E-02
     1         96     2     2  0.960000E-01  0.960000E-01  0.100000E-02
     1         96     2     2  0.960000E-01  0.960000E-01  0.100000E-02
     1         97     1     2  0.970000E-01  0.970000E-01  0.100000E-02
     1         97     2     2  0.970000E-01  0.970000E-01  0.100000E-02
     1         97     2     2  0.970000E-01  0.970000E-01  0.100000E-02
     1         97     2     2  0.970000E-01  0.970000E-01  0.100000E-02
     1         97     2     2  0.970000E-01  0.970000E-01  0.100000E-02
     1         97     2     2  0.970000E-01  0.970000E-01  0.100000E-02
     1         97     2     2  0.970000E-01  0.970000E-01  0.100000E-02
     1         98     1     2  0.980000E-01  0.980000E-01  0.100000E-02
     1         98     2     2  0.980000E-01  0.980000E-01  0.100000E-02
     1         98     2     2  0.980000E-01  0.980000E-01  0.100000E-02
     1         98     2     2  0.980000E-01  0.980000E-01  0.100000E-02
     1         98     2     2  0.980000E-01  0.980000E-01  0.100000E-02
     1         98     2     2  0.980000E-01  0.980000E-01  0.100000E-02
     1         98     2     2  0.980000E-01  0.980000E-01  0.100000E-02
     1         98     2     2  0.980000E-01  0.980000E-01  0.100000E-02
     1         98     2     2  0.980000E-01  0.980000E-01  0.100000E-02
     1         98     2     2  0.980000E-01  0.980000E-01  0.100000E-02
     1         98     2     2  0.980000E-01  0.980000E-01  0.100000E-02
     1         98     2     2  0.980000E-01  0.980000E-01  0.100000E-02
     1         98     2     2  0.980000E-01  0.980000E-01  0.100000E-02
     1         98     2     2  0.980000E-01  0.980000E-01  0.100000E-02
     1         99     1     2  0.990000E-01  0.990000E-01  0.100000E-02
     1         99     2     2  0.990000E-01  0.990000E-01  0.100000E-02
     1         99     2     2  0.990000E-01  0.990000E-01  0.100000E-02
     1         99     2     2  0.990000E-01  0.990000E-01  0.100000E-02
     1         99     2     2  0.990000E-01  0.990000E-01  0.100000E-02
     1         99     2     2  0.990000E-01  0.990000E-01  0.100000E-02
     1         99     2     2  0.990000E-01  0.990000E-01  0.100000E-02
     1         99     2     2  0.990000E-01  0.990000E-01  0.100000E-02
     1         99     2     2  0.990000E-01  0.990000E-01  0.100000E-02
     1         99     2     2  0.990000E-01  0.990000E-01  0.100000E-02
     1         99     2     2  0.990000E-01  0.990000E-01  0.100000E-02
     1         99     2     2  0.990000E-01  0.990000E-01  0.100000E-02
     1         99     2     2  0.990000E-01  0.990000E-01  0.100000E-02
     1        100     1     2  0.100000E+00  0.100000E+00  0.100000E-02
     1        100     2     2  0.100000E+00  0.100000E+00  0.100000E-02
     1        100     2     2  0.100000E+00  0.100000E+00  0.100000E-02
     1        100     2     2  0.100000E+00  0.100000E+00  0.100000E-02
     1        100     2     2  0.100000E+00  0.100000E+00  0.100000E-02
     1        100     2     2  0.100000E+00  0.100000E+00  0.100000E-02
     1        100     2     2  0.100000E+00  0.100000E+00  0.100000E-02
     1        100     2     2  0.100000E+00  0.100000E+00  0.100000E-02
     1        100     2     2  0.100000E+00  0.100000E+00  0.100000E-02
     1        100     2     2  0.100000E+00  0.100000E+00  0.100000E-02
     1        100     2     2  0.100000E+00  0.100000E+00  0.100000E-02
     1        100     2     2  0.100000E+00  0.100000E+00  0.100000E-02
     1        101     1     2  0.101000E+00  0.101000E+00  0.100000E-02
     1        101     2     2  0.101000E+00  0.101000E+00  0.100000E-02
     1        101     2     2  0.101000E+00  0.101000E+00  0.100000E-02
     1        101     2     2  0.101000E+00  0.101000E+00  0.100000E-02
     1        101     2     2  0.101000E+00  0.101000E+00  0.100000E-02
     1        101     2     2  0.101000E+00  0.101000E+00  0.100000E-02
     1        101     2     2  0.101000E+00  0.101000E+00  0.100000E-02
     1        101     2     2  0.101000E+00  0.101000E+00  0.100000E-02
     1        102     1     2  0.102000E+00  0.102000E+00  0.100000E-02
     1        102     2     2  0.102000E+00  0.102000E+00  0.100000E-02
     1        102     2     2  0.102000E+00  0.102000E+00  0.100000E-02
     1        102     2     2  0.102000E+00  0.102000E+00  0.100000E-02
     1        102     2     2  0.102000E+00  0.102000E+00  0.100000E-02
     1        102     2     2  0.102000E+00  0.102000E+00  0.100000E-02
     1        102     2     2  0.102000E+00  0.102000E+00  0.100000E-02
     1        102     2     2  0.102000E+00  0.102000E+00  0.100000E-02
     1        102     2     2  0.102000E+00  0.102000E+00  0.100000E-02
     1        102     2     2  0.102000E+00  0.102000E+00  0.100000E-02
     1        102     2     2  0.102000E+00  0.102000E+00  0.100000E-02
     1        102     2     2  0.102000E+00  0.102000E+00  0.100000E-02
     1        102     2     2  0.102000E+00  0.102000E+00  0.100000E-02
     1        102     2     2  0.102000E+00  0.102000E+00  0.100000E-02
     1        102     2     2  0.102000E+00  0.102000E+00  0.100000E-02
     1        102     2     2  0.102000E+00  0.102000E+00  0.100000E-02
     1        102     2     2  0.102000E+00  0.102000E+00  0.100000E-02
     1        102     2     2  0.102000E+00  0.102000E+00  0.100000E-02
     1        102     2     2  0.102000E+00  0.102000E+00  0.100000E-02
     1        102     2     2  0.102000E+00  0.102000E+00  0.100000E-02
     1        102     2     2  0.102000E+00  0.102000E+00  0.100000E-02
     1        102     2     2  0.102000E+00  0.102000E+00  0.100000E-02
     1        103     1     2  0.103000E+00  0.103000E+00  0.100000E-02
     1        103     2     2  0.103000E+00  0.103000E+00  0.100000E-02
     1        103     2     2  0.103000E+00  0.103000E+00  0.100000E-02
     1        103     2     2  0.103000E+00  0.103000E+00  0.100000E-02
     1        104     1     2  0.104000E+00  0.104000E+00  0.100000E-02
     1        104     2     2  0.104000E+00  0.104000E+00  0.100000E-02
     1        104     2     2  0.104000E+00  0.104000E+00  0.100000E-02
     1        104     2     2  0.104000E+00  0.104000E+00  0.100000E-02
     1        104     2     2  0.104000E+00  0.104000E+00  0.100000E-02
     1        104     2     2  0.104000E+00  0.104000E+00  0.100000E-02
     1        105     1     2  0.105000E+00  0.105000E+00  0.100000E-02
     1        105     2     2  0.105000E+00  0.105000E+00  0.100000E-02
     1        105     2     2  0.105000E+00  0.105000E+00  0.100000E-02
     1        105     2     2  0.105000E+00  0.105000E+00  0.100000E-02
     1        105     2     2  0.105000E+00  0.105000E+00  0.100000E-02
     1        105     2     2  0.105000E+00  0.105000E+00  0.100000E-02
     1        105     2     2  0.105000E+00  0.105000E+00  0.100000E-02
     1        105     2     2  0.105000E+00  0.105000E+00  0.100000E-02
     1        105     2     2  0.105000E+00  0.105000E+00  0.100000E-02
     1        106     1     2  0.106000E+00  0.106000E+00  0.100000E-02
     1        106     2     2  0.106000E+00  0.106000E+00  0.100000E-02
     1        106     2     2  0.106000E+00  0.106000E+00  0.100000E-02
     1        106     2     2  0.106000E+00  0.106000E+00  0.100000E-02
     1        106     2     2  0.106000E+00  0.106000E+00  0.100000E-02
     1        106     2     2  0.106000E+00  0.106000E+00  0.100000E-02
     1        106     2     2  0.106000E+00  0.106000E+00  0.100000E-02
     1        106     2     2  0.106000E+00  0.106000E+00  0.100000E-02
     1        106     2     2  0.106000E+00  0.106000E+00  0.100000E-02
     1        106     2     2  0.106000E+00  0.106000E+00  0.100000E-02
     1        106     2     2  0.106000E+00  0.106000E+00  0.100000E-02
     1        106     2     2  0.106000E+00  0.106000E+00  0.100000E-02
     1        106     2     2  0.106000E+00  0.106000E+00  0.100000E-02
     1        106     2     2  0.106000E+00  0.106000E+00  0.100000E-02
     1        106     2     2  0.106000E+00  0.106000E+00  0.100000E-02
     1        106     2     2  0.106000E+00  0.106000E+00  0.100000E-02
     1        106     2     2  0.106000E+00  0.106000E+00  0.100000E-02
     1        107     1     2  0.107000E+00  0.107000E+00  0.100000E-02
     1        107     2     2  0.107000E+00  0.107000E+00  0.100000E-02
     1        107     2     2  0.107000E+00  0.107000E+00  0.100000E-02
     1        107     2     2  0.107000E+00  0.107000E+00  0.100000E-02
     1        107     2     2  0.107000E+00  0.107000E+00  0.100000E-02
     1        107     2     2  0.107000E+00  0.107000E+00  0.100000E-02
     1        107     2     2  0.107000E+00  0.107000E+00  0.100000E-02
     1        107     2     2  0.107000E+00  0.107000E+00  0.100000E-02
     1        108     1     2  0.108000E+00  0.108000E+00  0.100000E-02
     1        108     2     2  0.108000E+00  0.108000E+00  0.100000E-02
     1        108     2     2  0.108000E+00  0.108000E+00  0.100000E-02
     1        108     2     2  0.108000E+00  0.108000E+00  0.100000E-02
     1        108     2     2  0.108000E+00  0.108000E+00  0.100000E-02
     1        108     2     2  0.108000E+00  0.108000E+00  0.100000E-02
     1        108     2     2  0.108000E+00  0.108000E+00  0.100000E-02
     1        108     2     2  0.108000E+00  0.108000E+00  0.100000E-02
     1        108     2     2  0.108000E+00  0.108000E+00  0.100000E-02
     1        108     2     2  0.108000E+00  0.108000E+00  0.100000E-02
     1        108     2     2  0.108000E+00  0.108000E+00  0.100000E-02
     1        108     2     2  0.108000E+00  0.108000E+00  0.100000E-02
     1        108     2     2  0.108000E+00  0.108000E+00  0.100000E-02
     1        108     2     2  0.108000E+00  0.108000E+00  0.100000E-02
     1        109     1     2  0.109000E+00  0.109000E+00  0.100000E-02
     1        109     2     2  0.109000E+00  0.109000E+00  0.100000E-02
     1        109     2     2  0.109000E+00  0.109000E+00  0.100000E-02
     1        109     2     2  0.109000E+00  0.109000E+00  0.100000E-02
     1        109     2     2  0.109000E+00  0.109000E+00  0.100000E-02
     1        109     2     2  0.109000E+00  0.109000E+00  0.100000E-02
     1        109     2     2  0.109000E+00  0.109000E+00  0.100000E-02
     1        109     2     2  0.109000E+00  0.109000E+00  0.100000E-02
     1        109     2     2  0.109000E+00  0.109000E+00  0.100000E-02
     1        109     2     2  0.109000E+00  0.109000E+00  0.100000E-02
     1        109     2     2  0.109000E+00  0.109000E+00  0.100000E-02
     1        109     2     2  0.109000E+00  0.109000E+00  0.100000E-02
     1        109     2     2  0.109000E+00  0.109000E+00  0.100000E-02
     1        109     2     2  0.109000E+00  0.109000E+00  0.100000E-02
     1        109     2     2  0.109000E+00  0.109000E+00  0.100000E-02
     1        109     2     2  0.109000E+00  0.109000E+00  0.100000E-02
     1        109     2     2  0.109000E+00  0.109000E+00  0.100000E-02
     1        109     2     2  0.109000E+00  0.109000E+00  0.100000E-02
     1        109     2     2  0.109000E+00  0.109000E+00  0.100000E-02
     1        109     2     2  0.109000E+00  0.109000E+00  0.100000E-02
     1        109     2     2  0.109000E+00  0.109000E+00  0.100000E-02
     1        109     2     2  0.109000E+00  0.109000E+00  0.100000E-02
     1        110     1     2  0.110000E+00  0.110000E+00  0.100000E-02
     1        110     2     2  0.110000E+00  0.110000E+00  0.100000E-02
     1        110     2     2  0.110000E+00  0.110000E+00  0.100000E-02
     1        110     2     2  0.110000E+00  0.110000E+00  0.100000E-02
     1        110     2     2  0.110000E+00  0.110000E+00  0.100000E-02
     1        110     2     2  0.110000E+00  0.110000E+00  0.100000E-02
     1        110     2     2  0.110000E+00  0.110000E+00  0.100000E-02
     1        110     2     2  0.110000E+00  0.110000E+00  0.100000E-02
     1        111     1     2  0.111000E+00  0.111000E+00  0.100000E-02
     1        111     2     2  0.111000E+00  0.111000E+00  0.100000E-02
     1        111     2     2  0.111000E+00  0.111000E+00  0.100000E-02
     1        111     2     2  0.111000E+00  0.111000E+00  0.100000E-02
     1        111     2     2  0.111000E+00  0.111000E+00  0.100000E-02
     1        112     1     2  0.112000E+00  0.112000E+00  0.100000E-02
     1        112     2     2  0.112000E+00  0.112000E+00  0.100000E-02
     1        112     2     2  0.112000E+00  0.112000E+00  0.100000E-02
     1        112     2     2  0.112000E+00  0.112000E+00  0.100000E-02
     1        112     2     2  0.112000E+00  0.112000E+00  0.100000E-02
     1        112     2     2  0.112000E+00  0.112000E+00  0.100000E-02
     1        112     2     2  0.112000E+00  0.112000E+00  0.100000E-02
     1        112     2     2  0.112000E+00  0.112000E+00  0.100000E-02
     1        112     2     2  0.112000E+00  0.112000E+00  0.100000E-02
     1        112     2     2  0.112000E+00  0.112000E+00  0.100000E-02
     1        112     2     2  0.112000E+00  0.112000E+00  0.100000E-02
     1        112     2     2  0.112000E+00  0.112000E+00  0.100000E-02
     1        112     2     2  0.112000E+00  0.112000E+00  0.100000E-02
     1        112     2     2  0.112000E+00  0.112000E+00  0.100000E-02
     1        112     2     2  0.112000E+00  0.112000E+00  0.100000E-02
     1        112     2     2  0.112000E+00  0.112000E+00  0.100000E-02
     1        113     1     2  0.113000E+00  0.113000E+00  0.100000E-02
     1        113     2     2  0.113000E+00  0.113000E+00  0.100000E-02
     1        113     2     2  0.113000E+00  0.113000E+00  0.100000E-02
     1        113     2     2  0.113000E+00  0.113000E+00  0.100000E-02
     1        113     2     2  0.113000E+00  0.113000E+00  0.100000E-02
     1        113     2     2  0.113000E+00  0.113000E+00  0.100000E-02
     1        114     1     2  0.114000E+00  0.114000E+00  0.100000E-02
     1        114     2     2  0.114000E+00  0.114000E+00  0.100000E-02
     1        114     2     2  0.114000E+00  0.114000E+00  0.100000E-02
[...]
     1        476     2     2  0.476000E+00  0.476000E+00  0.100000E-02
     1        476     2     2  0.476000E+00  0.476000E+00  0.100000E-02
     1        477     1     2  0.477000E+00  0.477000E+00  0.100000E-02
     1        477     2     2  0.477000E+00  0.477000E+00  0.100000E-02
     1        477     2     2  0.477000E+00  0.477000E+00  0.100000E-02
     1        477     2     2  0.477000E+00  0.477000E+00  0.100000E-02
     1        477     2     2  0.477000E+00  0.477000E+00  0.100000E-02
     1        477     2     2  0.477000E+00  0.477000E+00  0.100000E-02
     1        477     2     2  0.477000E+00  0.477000E+00  0.100000E-02
     1        477     2     2  0.477000E+00  0.477000E+00  0.100000E-02
     1        477     2     2  0.477000E+00  0.477000E+00  0.100000E-02
     1        477     2     2  0.477000E+00  0.477000E+00  0.100000E-02
     1        477     2     2  0.477000E+00  0.477000E+00  0.100000E-02
     1        477     2     2  0.477000E+00  0.477000E+00  0.100000E-02
     1        477     2     2  0.477000E+00  0.477000E+00  0.100000E-02
     1        477     2     2  0.477000E+00  0.477000E+00  0.100000E-02
     1        477     2     2  0.477000E+00  0.477000E+00  0.100000E-02
     1        477     2     2  0.477000E+00  0.477000E+00  0.100000E-02
     1        477     2     2  0.477000E+00  0.477000E+00  0.100000E-02
     1        478     1     2  0.478000E+00  0.478000E+00  0.100000E-02
     1        478     2     2  0.478000E+00  0.478000E+00  0.100000E-02
     1        478     2     2  0.478000E+00  0.478000E+00  0.100000E-02
     1        478     2     2  0.478000E+00  0.478000E+00  0.100000E-02
     1        478     2     2  0.478000E+00  0.478000E+00  0.100000E-02
     1        478     2     2  0.478000E+00  0.478000E+00  0.100000E-02
     1        478     2     2  0.478000E+00  0.478000E+00  0.100000E-02
     1        478     2     2  0.478000E+00  0.478000E+00  0.100000E-02
     1        478     2     2  0.478000E+00  0.478000E+00  0.100000E-02
     1        478     2     2  0.478000E+00  0.478000E+00  0.100000E-02
     1        478     2     2  0.478000E+00  0.478000E+00  0.100000E-02
     1        479     1     2  0.479000E+00  0.479000E+00  0.100000E-02
     1        479     2     2  0.479000E+00  0.479000E+00  0.100000E-02
     1        479     2     2  0.479000E+00  0.479000E+00  0.100000E-02
     1        479     2     2  0.479000E+00  0.479000E+00  0.100000E-02
     1        479     2     2  0.479000E+00  0.479000E+00  0.100000E-02
     1        479     2     2  0.479000E+00  0.479000E+00  0.100000E-02
     1        479     2     2  0.479000E+00  0.479000E+00  0.100000E-02
     1        479     2     2  0.479000E+00  0.479000E+00  0.100000E-02
     1        479     2     2  0.479000E+00  0.479000E+00  0.100000E-02
     1        479     2     2  0.479000E+00  0.479000E+00  0.100000E-02
     1        479     2     2  0.479000E+00  0.479000E+00  0.100000E-02
     1        479     2     2  0.479000E+00  0.479000E+00  0.100000E-02
     1        479     2     2  0.479000E+00  0.479000E+00  0.100000E-02
     1        479     2     2  0.479000E+00  0.479000E+00  0.100000E-02
     1        479     2     2  0.479000E+00  0.479000E+00  0.100000E-02
     1        479     2     2  0.479000E+00  0.479000E+00  0.100000E-02
     1        479     2     2  0.479000E+00  0.479000E+00  0.100000E-02
     1        479     2     2  0.479000E+00  0.479000E+00  0.100000E-02
     1        480     1     2  0.480000E+00  0.480000E+00  0.100000E-02
     1        480     2     2  0.480000E+00  0.480000E+00  0.100000E-02
     1        480     2     2  0.480000E+00  0.480000E+00  0.100000E-02
     1        480     2     2  0.480000E+00  0.480000E+00  0.100000E-02
     1        480     2     2  0.480000E+00  0.480000E+00  0.100000E-02
     1        480     2     2  0.480000E+00  0.480000E+00  0.100000E-02
     1        480     2     2  0.480000E+00  0.480000E+00  0.100000E-02
     1        480     2     2  0.480000E+00  0.480000E+00  0.100000E-02
     1        480     2     2  0.480000E+00  0.480000E+00  0.100000E-02
     1        480     2     2  0.480000E+00  0.480000E+00  0.100000E-02
     1        480     2     2  0.480000E+00  0.480000E+00  0.100000E-02
     1        480     2     2  0.480000E+00  0.480000E+00  0.100000E-02
     1        480     2     2  0.480000E+00  0.480000E+00  0.100000E-02
     1        481     1     2  0.481000E+00  0.481000E+00  0.100000E-02
     1        481     2     2  0.481000E+00  0.481000E+00  0.100000E-02
     1        481     2     2  0.481000E+00  0.481000E+00  0.100000E-02
     1        481     2     2  0.481000E+00  0.481000E+00  0.100000E-02
     1        481     2     2  0.481000E+00  0.481000E+00  0.100000E-02
     1        481     2     2  0.481000E+00  0.481000E+00  0.100000E-02
     1        481     2     2  0.481000E+00  0.481000E+00  0.100000E-02
     1        482     1     2  0.482000E+00  0.482000E+00  0.100000E-02
     1        482     2     2  0.482000E+00  0.482000E+00  0.100000E-02
     1        482     2     2  0.482000E+00  0.482000E+00  0.100000E-02
     1        482     2     2  0.482000E+00  0.482000E+00  0.100000E-02
     1        482     2     2  0.482000E+00  0.482000E+00  0.100000E-02
     1        482     2     2  0.482000E+00  0.482000E+00  0.100000E-02
     1        482     2     2  0.482000E+00  0.482000E+00  0.100000E-02
     1        482     2     2  0.482000E+00  0.482000E+00  0.100000E-02
     1        482     2     2  0.482000E+00  0.482000E+00  0.100000E-02
     1        482     2     2  0.482000E+00  0.482000E+00  0.100000E-02
     1        482     2     2  0.482000E+00  0.482000E+00  0.100000E-02
     1        482     2     2  0.482000E+00  0.482000E+00  0.100000E-02
     1        482     2     2  0.482000E+00  0.482000E+00  0.100000E-02
     1        482     2     2  0.482000E+00  0.482000E+00  0.100000E-02
     1        482     2     2  0.482000E+00  0.482000E+00  0.100000E-02
     1        482     2     2  0.482000E+00  0.482000E+00  0.100000E-02
     1        482     2     2  0.482000E+00  0.482000E+00  0.100000E-02
     1        482     2     2  0.482000E+00  0.482000E+00  0.100000E-02
     1        482     2     2  0.482000E+00  0.482000E+00  0.100000E-02
     1        482     2     2  0.482000E+00  0.482000E+00  0.100000E-02
     1        482     2     2  0.482000E+00  0.482000E+00  0.100000E-02
     1        482     2     2  0.482000E+00  0.482000E+00  0.100000E-02
     1        482     2     2  0.482000E+00  0.482000E+00  0.100000E-02
     1        482     2     2  0.482000E+00  0.482000E+00  0.100000E-02
     1        482     2     2  0.482000E+00  0.482000E+00  0.100000E-02
     1        482     2     2  0.482000E+00  0.482000E+00  0.100000E-02
     1        482     2     2  0.482000E+00  0.482000E+00  0.100000E-02
     1        482     2     2  0.482000E+00  0.482000E+00  0.100000E-02
     1        482     2     2  0.482000E+00  0.482000E+00  0.100000E-02
     1        482     2     2  0.482000E+00  0.482000E+00  0.100000E-02
     1        482     2     2  0.482000E+00  0.482000E+00  0.100000E-02
     1        482     2     2  0.482000E+00  0.482000E+00  0.100000E-02
     1        482     2     2  0.482000E+00  0.482000E+00  0.100000E-02
     1        483     1     2  0.483000E+00  0.483000E+00  0.100000E-02
     1        483     2     2  0.483000E+00  0.483000E+00  0.100000E-02
     1        483     2     2  0.483000E+00  0.483000E+00  0.100000E-02
     1        483     2     2  0.483000E+00  0.483000E+00  0.100000E-02
     1        483     2     2  0.483000E+00  0.483000E+00  0.100000E-02
     1        483     2     2  0.483000E+00  0.483000E+00  0.100000E-02
     1        483     2     2  0.483000E+00  0.483000E+00  0.100000E-02
     1        483     2     2  0.483000E+00  0.483000E+00  0.100000E-02
     1        483     2     2  0.483000E+00  0.483000E+00  0.100000E-02
     1        483     2     2  0.483000E+00  0.483000E+00  0.100000E-02
     1        483     2     2  0.483000E+00  0.483000E+00  0.100000E-02
     1        483     2     2  0.483000E+00  0.483000E+00  0.100000E-02
     1        483     2     2  0.483000E+00  0.483000E+00  0.100000E-02
     1        483     2     2  0.483000E+00  0.483000E+00  0.100000E-02
     1        483     2     2  0.483000E+00  0.483000E+00  0.100000E-02
     1        483     2     2  0.483000E+00  0.483000E+00  0.100000E-02
     1        484     1     2  0.484000E+00  0.484000E+00  0.100000E-02
     1        484     2     2  0.484000E+00  0.484000E+00  0.100000E-02
     1        484     2     2  0.484000E+00  0.484000E+00  0.100000E-02
     1        484     2     2  0.484000E+00  0.484000E+00  0.100000E-02
     1        484     2     2  0.484000E+00  0.484000E+00  0.100000E-02
     1        484     2     2  0.484000E+00  0.484000E+00  0.100000E-02
     1        484     2     2  0.484000E+00  0.484000E+00  0.100000E-02
     1        484     2     2  0.484000E+00  0.484000E+00  0.100000E-02
     1        484     2     2  0.484000E+00  0.484000E+00  0.100000E-02
     1        484     2     2  0.484000E+00  0.484000E+00  0.100000E-02
     1        484     2     2  0.484000E+00  0.484000E+00  0.100000E-02
     1        484     2     2  0.484000E+00  0.484000E+00  0.100000E-02
     1        484     2     2  0.484000E+00  0.484000E+00  0.100000E-02
     1        484     2     2  0.484000E+00  0.484000E+00  0.100000E-02
     1        484     2     2  0.484000E+00  0.484000E+00  0.100000E-02
     1        484     2     2  0.484000E+00  0.484000E+00  0.100000E-02
     1        485     1     2  0.485000E+00  0.485000E+00  0.100000E-02
     1        485     2     2  0.485000E+00  0.485000E+00  0.100000E-02
     1        485     2     2  0.485000E+00  0.485000E+00  0.100000E-02
     1        485     2     2  0.485000E+00  0.485000E+00  0.100000E-02
     1        485     2     2  0.485000E+00  0.485000E+00  0.100000E-02
     1        485     2     2  0.485000E+00  0.485000E+00  0.100000E-02
     1        485     2     2  0.485000E+00  0.485000E+00  0.100000E-02
     1        485     2     2  0.485000E+00  0.485000E+00  0.100000E-02
     1        485     2     2  0.485000E+00  0.485000E+00  0.100000E-02
     1        485     2     2  0.485000E+00  0.485000E+00  0.100000E-02
     1        485     2     2  0.485000E+00  0.485000E+00  0.100000E-02
     1        485     2     2  0.485000E+00  0.485000E+00  0.100000E-02
     1        486     1     2  0.486000E+00  0.486000E+00  0.100000E-02
     1        486     2     2  0.486000E+00  0.486000E+00  0.100000E-02
     1        486     2     2  0.486000E+00  0.486000E+00  0.100000E-02
     1        487     1     2  0.487000E+00  0.487000E+00  0.100000E-02
     1        487     2     2  0.487000E+00  0.487000E+00  0.100000E-02
     1        487     2     2  0.487000E+00  0.487000E+00  0.100000E-02
     1        487     2     2  0.487000E+00  0.487000E+00  0.100000E-02
     1        487     2     2  0.487000E+00  0.487000E+00  0.100000E-02
     1        487     2     2  0.487000E+00  0.487000E+00  0.100000E-02
     1        487     2     2  0.487000E+00  0.487000E+00  0.100000E-02
     1        487     2     2  0.487000E+00  0.487000E+00  0.100000E-02
     1        487     2     2  0.487000E+00  0.487000E+00  0.100000E-02
     1        487     2     2  0.487000E+00  0.487000E+00  0.100000E-02
     1        488     1     2  0.488000E+00  0.488000E+00  0.100000E-02
     1        488     2     2  0.488000E+00  0.488000E+00  0.100000E-02
     1        488     2     2  0.488000E+00  0.488000E+00  0.100000E-02
     1        488     2     2  0.488000E+00  0.488000E+00  0.100000E-02
     1        488     2     2  0.488000E+00  0.488000E+00  0.100000E-02
     1        489     1     2  0.489000E+00  0.489000E+00  0.100000E-02
     1        489     2     2  0.489000E+00  0.489000E+00  0.100000E-02
     1        489     2     2  0.489000E+00  0.489000E+00  0.100000E-02
     1        489     2     2  0.489000E+00  0.489000E+00  0.100000E-02
     1        489     2     2  0.489000E+00  0.489000E+00  0.100000E-02
     1        490     1     2  0.490000E+00  0.490000E+00  0.100000E-02
     1        490     2     2  0.490000E+00  0.490000E+00  0.100000E-02
     1        490     2     2  0.490000E+00  0.490000E+00  0.100000E-02
     1        490     2     2  0.490000E+00  0.490000E+00  0.100000E-02
     1        490     2     2  0.490000E+00  0.490000E+00  0.100000E-02
     1        490     2     2  0.490000E+00  0.490000E+00  0.100000E-02
     1        491     1     2  0.491000E+00  0.491000E+00  0.100000E-02
     1        491     2     2  0.491000E+00  0.491000E+00  0.100000E-02
     1        491     2     2  0.491000E+00  0.491000E+00  0.100000E-02
     1        491     2     2  0.491000E+00  0.491000E+00  0.100000E-02
     1        491     2     2  0.491000E+00  0.491000E+00  0.100000E-02
     1        491     2     2  0.491000E+00  0.491000E+00  0.100000E-02
     1        491     2     2  0.491000E+00  0.491000E+00  0.100000E-02
     1        491     2     2  0.491000E+00  0.491000E+00  0.100000E-02
     1        491     2     2  0.491000E+00  0.491000E+00  0.100000E-02
     1        491     2     2  0.491000E+00  0.491000E+00  0.100000E-02
     1        491     2     2  0.491000E+00  0.491000E+00  0.100000E-02
     1        491     2     2  0.491000E+00  0.491000E+00  0.100000E-02
     1        491     2     2  0.491000E+00  0.491000E+00  0.100000E-02
     1        491     2     2  0.491000E+00  0.491000E+00  0.100000E-02
     1        491     2     2  0.491000E+00  0.491000E+00  0.100000E-02
     1        491     2     2  0.491000E+00  0.491000E+00  0.100000E-02
     1        491     2     2  0.491000E+00  0.491000E+00  0.100000E-02
     1        491     2     2  0.491000E+00  0.491000E+00  0.100000E-02
     1        491     2     2  0.491000E+00  0.491000E+00  0.100000E-02
     1        491     2     2  0.491000E+00  0.491000E+00  0.100000E-02
     1        491     2     2  0.491000E+00  0.491000E+00  0.100000E-02
     1        491     2     2  0.491000E+00  0.491000E+00  0.100000E-02
     1        491     2     2  0.491000E+00  0.491000E+00  0.100000E-02
     1        491     2     2  0.491000E+00  0.491000E+00  0.100000E-02
     1        491     2     2  0.491000E+00  0.491000E+00  0.100000E-02
     1        491     2     2  0.491000E+00  0.491000E+00  0.100000E-02
     1        491     2     2  0.491000E+00  0.491000E+00  0.100000E-02
     1        491     2     2  0.491000E+00  0.491000E+00  0.100000E-02
     1        491     2     2  0.491000E+00  0.491000E+00  0.100000E-02
     1        491     2     2  0.491000E+00  0.491000E+00  0.100000E-02
     1        492     1     2  0.492000E+00  0.492000E+00  0.100000E-02
     1        492     2     2  0.492000E+00  0.492000E+00  0.100000E-02
     1        492     2     2  0.492000E+00  0.492000E+00  0.100000E-02
     1        493     1     2  0.493000E+00  0.493000E+00  0.100000E-02
     1        493     2     2  0.493000E+00  0.493000E+00  0.100000E-02
     1        493     2     2  0.493000E+00  0.493000E+00  0.100000E-02
     1        493     2     2  0.493000E+00  0.493000E+00  0.100000E-02
     1        493     2     2  0.493000E+00  0.493000E+00  0.100000E-02
     1        493     2     2  0.493000E+00  0.493000E+00  0.100000E-02
     1        493     2     2  0.493000E+00  0.493000E+00  0.100000E-02
     1        493     2     2  0.493000E+00  0.493000E+00  0.100000E-02
     1        493     2     2  0.493000E+00  0.493000E+00  0.100000E-02
     1        493     2     2  0.493000E+00  0.493000E+00  0.100000E-02
     1        493     2     2  0.493000E+00  0.493000E+00  0.100000E-02
     1        493     2     2  0.493000E+00  0.493000E+00  0.100000E-02
     1        493     2     2  0.493000E+00  0.493000E+00  0.100000E-02
     1        493     2     2  0.493000E+00  0.493000E+00  0.100000E-02
     1        494     1     2  0.494000E+00  0.494000E+00  0.100000E-02
     1        494     2     2  0.494000E+00  0.494000E+00  0.100000E-02
     1        494     2     2  0.494000E+00  0.494000E+00  0.100000E-02
     1        494     2     2  0.494000E+00  0.494000E+00  0.100000E-02
     1        495     1     2  0.495000E+00  0.495000E+00  0.100000E-02
     1        495     2     2  0.495000E+00  0.495000E+00  0.100000E-02
     1        495     2     2  0.495000E+00  0.495000E+00  0.100000E-02
     1        495     2     2  0.495000E+00  0.495000E+00  0.100000E-02
     1        495     2     2  0.495000E+00  0.495000E+00  0.100000E-02
     1        495     2     2  0.495000E+00  0.495000E+00  0.100000E-02
     1        495     2     2  0.495000E+00  0.495000E+00  0.100000E-02
     1        495     2     2  0.495000E+00  0.495000E+00  0.100000E-02
     1        495     2     2  0.495000E+00  0.495000E+00  0.100000E-02
     1        495     2     2  0.495000E+00  0.495000E+00  0.100000E-02
     1        495     2     2  0.495000E+00  0.495000E+00  0.100000E-02
     1        495     2     2  0.495000E+00  0.495000E+00  0.100000E-02
     1        495     2     2  0.495000E+00  0.495000E+00  0.100000E-02
     1        495     2     2  0.495000E+00  0.495000E+00  0.100000E-02
     1        495     2     2  0.495000E+00  0.495000E+00  0.100000E-02
     1        495     2     2  0.495000E+00  0.495000E+00  0.100000E-02
     1        495     2     2  0.495000E+00  0.495000E+00  0.100000E-02
     1        495     2     2  0.495000E+00  0.495000E+00  0.100000E-02
     1        496     1     2  0.496000E+00  0.496000E+00  0.100000E-02
     1        496     2     2  0.496000E+00  0.496000E+00  0.100000E-02
     1        496     2     2  0.496000E+00  0.496000E+00  0.100000E-02
     1        496     2     2  0.496000E+00  0.496000E+00  0.100000E-02
     1        496     2     2  0.496000E+00  0.496000E+00  0.100000E-02
     1        496     2     2  0.496000E+00  0.496000E+00  0.100000E-02
     1        496     2     2  0.496000E+00  0.496000E+00  0.100000E-02
     1        496     2     2  0.496000E+00  0.496000E+00  0.100000E-02
     1        496     2     2  0.496000E+00  0.496000E+00  0.100000E-02
     1        496     2     2  0.496000E+00  0.496000E+00  0.100000E-02
     1        496     2     2  0.496000E+00  0.496000E+00  0.100000E-02
     1        496     2     2  0.496000E+00  0.496000E+00  0.100000E-02
     1        497     1     2  0.497000E+00  0.497000E+00  0.100000E-02
     1        497     2     2  0.497000E+00  0.497000E+00  0.100000E-02
     1        498     1     2  0.498000E+00  0.498000E+00  0.100000E-02
     1        498     2     2  0.498000E+00  0.498000E+00  0.100000E-02
     1        498     2     2  0.498000E+00  0.498000E+00  0.100000E-02
     1        498     2     2  0.498000E+00  0.498000E+00  0.100000E-02
     1        498     2     2  0.498000E+00  0.498000E+00  0.100000E-02
     1        498     2     2  0.498000E+00  0.498000E+00  0.100000E-02
     1        498     2     2  0.498000E+00  0.498000E+00  0.100000E-02
     1        498     2     2  0.498000E+00  0.498000E+00  0.100000E-02
     1        498     2     2  0.498000E+00  0.498000E+00  0.100000E-02
     1        498     2     2  0.498000E+00  0.498000E+00  0.100000E-02
     1        498     2     2  0.498000E+00  0.498000E+00  0.100000E-02
     1        498     2     2  0.498000E+00  0.498000E+00  0.100000E-02
     1        498     2     2  0.498000E+00  0.498000E+00  0.100000E-02
     1        499     1     2  0.499000E+00  0.499000E+00  0.100000E-02
     1        499     2     2  0.499000E+00  0.499000E+00  0.100000E-02
     1        499     2     2  0.499000E+00  0.499000E+00  0.100000E-02
     1        500     1     2  0.500000E+00  0.500000E+00  0.100000E-02
     1        500     2     2  0.500000E+00  0.500000E+00  0.100000E-02
     1        500     2     2  0.500000E+00  0.500000E+00  0.100000E-02
     1        500     2     2  0.500000E+00  0.500000E+00  0.100000E-02
