**
**   Structure: part 1 of cantilever beam.
**   
**
*INCLUDE, INPUT=/home/alextru/Desktop/Master/Thesis/test/Calculix1/Calculix1Mesh/all.msh
*INCLUDE, INPUT=/home/alextru/Desktop/Master/Thesis/test/Calculix1/Calculix1Mesh/fix1_beam.nam
*INCLUDE, INPUT=/home/alextru/Desktop/Master/Thesis/test/Calculix1/Calculix1Mesh/interface_beam.nam
*BOUNDARY
FIX, 1
*BOUNDARY
FIX, 2
*BOUNDARY
FIX, 3
*BOUNDARY
Nsurface, 1, 3
*NSET,NSET=Nctrl
222, 228, 234, 240, 246, 252
*MATERIAL,NAME=EL
*ELASTIC
 210000.0,        .3
*DENSITY
 7.8E-9
*SOLID SECTION,ELSET=Eall,MATERIAL=EL
**INITIAL CONDITIONS, TYPE
**Nall, 0.01
*AMPLITUDE, NAME=A1
0., 1., 
.01, 0.,
5., 0.
**STEP
**FREQUENCY, STORAGE=YES
**10
**END STEP
*STEP, INC=1000000
**STEADY STATE DYNAMICS
**10, 10
*DYNAMIC,DIRECT
5E-3, 100.0, 5E-3, 5E-3
*CLOAD
Nsurface, 1, 0.
Nsurface, 2, 0. 
Nsurface, 3, 0.
*CLOAD, AMPLITUDE=A1
117, 2, -10
*NODE FILE
U
*NODE PRINT,NSET=Nall
U,RF
**EL PRINT,ELSET=Eall
**S
*END STEP
