SUMMARY OF JOB INFORMATION
  STEP      INC     ATT  ITRS     TOT TIME     STEP TIME      INC TIME
     1          1     1     2  0.500000E-01  0.500000E-01  0.500000E-01
     1          1     2     2  0.500000E-01  0.500000E-01  0.500000E-01
     1          1     2     2  0.500000E-01  0.500000E-01  0.500000E-01
     1          1     2     2  0.500000E-01  0.500000E-01  0.500000E-01
     1          1     2     2  0.500000E-01  0.500000E-01  0.500000E-01
     1          1     2     2  0.500000E-01  0.500000E-01  0.500000E-01
     1          1     2     2  0.500000E-01  0.500000E-01  0.500000E-01
     1          1     2     2  0.500000E-01  0.500000E-01  0.500000E-01
     1          1     2     2  0.500000E-01  0.500000E-01  0.500000E-01
     1          1     2     2  0.500000E-01  0.500000E-01  0.500000E-01
     1          1     2     2  0.500000E-01  0.500000E-01  0.500000E-01
     1          1     2     2  0.500000E-01  0.500000E-01  0.500000E-01
     1          1     2     2  0.500000E-01  0.500000E-01  0.500000E-01
     1          1     2     2  0.500000E-01  0.500000E-01  0.500000E-01
     1          1     2     2  0.500000E-01  0.500000E-01  0.500000E-01
     1          1     2     2  0.500000E-01  0.500000E-01  0.500000E-01
     1          1     2     2  0.500000E-01  0.500000E-01  0.500000E-01
     1          1     2     2  0.500000E-01  0.500000E-01  0.500000E-01
     1          1     2     2  0.500000E-01  0.500000E-01  0.500000E-01
     1          1     2     2  0.500000E-01  0.500000E-01  0.500000E-01
     1          1     2     2  0.500000E-01  0.500000E-01  0.500000E-01
     1          1     2     2  0.500000E-01  0.500000E-01  0.500000E-01
     1          1     2     2  0.500000E-01  0.500000E-01  0.500000E-01
     1          1     2     2  0.500000E-01  0.500000E-01  0.500000E-01
     1          1     2     2  0.500000E-01  0.500000E-01  0.500000E-01
     1          1     2     2  0.500000E-01  0.500000E-01  0.500000E-01
     1          1     2     2  0.500000E-01  0.500000E-01  0.500000E-01
     1          1     2     2  0.500000E-01  0.500000E-01  0.500000E-01
     1          1     2     2  0.500000E-01  0.500000E-01  0.500000E-01
     1          1     2     2  0.500000E-01  0.500000E-01  0.500000E-01
     1          1     2     2  0.500000E-01  0.500000E-01  0.500000E-01
     1          1     2     2  0.500000E-01  0.500000E-01  0.500000E-01
     1          1     2     2  0.500000E-01  0.500000E-01  0.500000E-01
     1          1     2     2  0.500000E-01  0.500000E-01  0.500000E-01
     1          1     2     2  0.500000E-01  0.500000E-01  0.500000E-01
     1          1     2     2  0.500000E-01  0.500000E-01  0.500000E-01
     1          1     2     2  0.500000E-01  0.500000E-01  0.500000E-01
     1          1     2     2  0.500000E-01  0.500000E-01  0.500000E-01
     1          1     2     2  0.500000E-01  0.500000E-01  0.500000E-01
     1          1     2     2  0.500000E-01  0.500000E-01  0.500000E-01
     1          1     2     2  0.500000E-01  0.500000E-01  0.500000E-01
     1          1     2     2  0.500000E-01  0.500000E-01  0.500000E-01
     1          1     2     2  0.500000E-01  0.500000E-01  0.500000E-01
     1          1     2     2  0.500000E-01  0.500000E-01  0.500000E-01
     1          1     2     2  0.500000E-01  0.500000E-01  0.500000E-01
     1          1     2     2  0.500000E-01  0.500000E-01  0.500000E-01
     1          1     2     2  0.500000E-01  0.500000E-01  0.500000E-01
     1          1     2     2  0.500000E-01  0.500000E-01  0.500000E-01
     1          1     2     2  0.500000E-01  0.500000E-01  0.500000E-01
     1          1     2     2  0.500000E-01  0.500000E-01  0.500000E-01
     1          1     2     2  0.500000E-01  0.500000E-01  0.500000E-01
     1          1     2     2  0.500000E-01  0.500000E-01  0.500000E-01
     1          1     2     2  0.500000E-01  0.500000E-01  0.500000E-01
     1          1     2     2  0.500000E-01  0.500000E-01  0.500000E-01
     1          1     2     2  0.500000E-01  0.500000E-01  0.500000E-01
     1          1     2     2  0.500000E-01  0.500000E-01  0.500000E-01
     1          1     2     2  0.500000E-01  0.500000E-01  0.500000E-01
     1          1     2     2  0.500000E-01  0.500000E-01  0.500000E-01
     1          1     2     2  0.500000E-01  0.500000E-01  0.500000E-01
     1          1     2     2  0.500000E-01  0.500000E-01  0.500000E-01
     1          1     2     2  0.500000E-01  0.500000E-01  0.500000E-01
     1          1     2     2  0.500000E-01  0.500000E-01  0.500000E-01
     1          1     2     2  0.500000E-01  0.500000E-01  0.500000E-01
     1          1     2     2  0.500000E-01  0.500000E-01  0.500000E-01
     1          1     2     2  0.500000E-01  0.500000E-01  0.500000E-01
     1          1     2     2  0.500000E-01  0.500000E-01  0.500000E-01
     1          1     2     2  0.500000E-01  0.500000E-01  0.500000E-01
     1          1     2     2  0.500000E-01  0.500000E-01  0.500000E-01
     1          1     2     2  0.500000E-01  0.500000E-01  0.500000E-01
     1          1     2     2  0.500000E-01  0.500000E-01  0.500000E-01
     1          1     2     2  0.500000E-01  0.500000E-01  0.500000E-01
     1          1     2     2  0.500000E-01  0.500000E-01  0.500000E-01
     1          1     2     2  0.500000E-01  0.500000E-01  0.500000E-01
     1          1     2     2  0.500000E-01  0.500000E-01  0.500000E-01
     1          1     2     2  0.500000E-01  0.500000E-01  0.500000E-01
     1          1     2     2  0.500000E-01  0.500000E-01  0.500000E-01
     1          1     2     2  0.500000E-01  0.500000E-01  0.500000E-01
     1          2     1     2  0.100000E+00  0.100000E+00  0.500000E-01
     1          2     2     2  0.100000E+00  0.100000E+00  0.500000E-01
     1          2     2     2  0.100000E+00  0.100000E+00  0.500000E-01
     1          2     2     2  0.100000E+00  0.100000E+00  0.500000E-01
     1          2     2     2  0.100000E+00  0.100000E+00  0.500000E-01
     1          2     2     2  0.100000E+00  0.100000E+00  0.500000E-01
     1          2     2     2  0.100000E+00  0.100000E+00  0.500000E-01
     1          2     2     2  0.100000E+00  0.100000E+00  0.500000E-01
     1          2     2     2  0.100000E+00  0.100000E+00  0.500000E-01
     1          2     2     2  0.100000E+00  0.100000E+00  0.500000E-01
     1          2     2     2  0.100000E+00  0.100000E+00  0.500000E-01
     1          2     2     2  0.100000E+00  0.100000E+00  0.500000E-01
     1          2     2     2  0.100000E+00  0.100000E+00  0.500000E-01
     1          2     2     2  0.100000E+00  0.100000E+00  0.500000E-01
     1          2     2     2  0.100000E+00  0.100000E+00  0.500000E-01
     1          2     2     2  0.100000E+00  0.100000E+00  0.500000E-01
     1          2     2     2  0.100000E+00  0.100000E+00  0.500000E-01
     1          2     2     2  0.100000E+00  0.100000E+00  0.500000E-01
     1          2     2     2  0.100000E+00  0.100000E+00  0.500000E-01
     1          2     2     2  0.100000E+00  0.100000E+00  0.500000E-01
     1          2     2     2  0.100000E+00  0.100000E+00  0.500000E-01
     1          2     2     2  0.100000E+00  0.100000E+00  0.500000E-01
     1          2     2     2  0.100000E+00  0.100000E+00  0.500000E-01
     1          2     2     2  0.100000E+00  0.100000E+00  0.500000E-01
     1          2     2     2  0.100000E+00  0.100000E+00  0.500000E-01
     1          2     2     2  0.100000E+00  0.100000E+00  0.500000E-01
     1          2     2     2  0.100000E+00  0.100000E+00  0.500000E-01
     1          2     2     2  0.100000E+00  0.100000E+00  0.500000E-01
     1          2     2     2  0.100000E+00  0.100000E+00  0.500000E-01
     1          2     2     2  0.100000E+00  0.100000E+00  0.500000E-01
     1          2     2     2  0.100000E+00  0.100000E+00  0.500000E-01
     1          2     2     2  0.100000E+00  0.100000E+00  0.500000E-01
     1          2     2     2  0.100000E+00  0.100000E+00  0.500000E-01
     1          2     2     2  0.100000E+00  0.100000E+00  0.500000E-01
     1          2     2     2  0.100000E+00  0.100000E+00  0.500000E-01
     1          2     2     2  0.100000E+00  0.100000E+00  0.500000E-01
     1          2     2     2  0.100000E+00  0.100000E+00  0.500000E-01
     1          2     2     2  0.100000E+00  0.100000E+00  0.500000E-01
     1          2     2     2  0.100000E+00  0.100000E+00  0.500000E-01
     1          2     2     2  0.100000E+00  0.100000E+00  0.500000E-01
     1          2     2     2  0.100000E+00  0.100000E+00  0.500000E-01
     1          3     1     2  0.150000E+00  0.150000E+00  0.500000E-01
     1          3     2     2  0.150000E+00  0.150000E+00  0.500000E-01
     1          3     2     2  0.150000E+00  0.150000E+00  0.500000E-01
     1          3     2     2  0.150000E+00  0.150000E+00  0.500000E-01
     1          3     2     2  0.150000E+00  0.150000E+00  0.500000E-01
     1          3     2     2  0.150000E+00  0.150000E+00  0.500000E-01
     1          3     2     2  0.150000E+00  0.150000E+00  0.500000E-01
     1          3     2     2  0.150000E+00  0.150000E+00  0.500000E-01
     1          3     2     2  0.150000E+00  0.150000E+00  0.500000E-01
     1          3     2     2  0.150000E+00  0.150000E+00  0.500000E-01
     1          3     2     2  0.150000E+00  0.150000E+00  0.500000E-01
     1          3     2     2  0.150000E+00  0.150000E+00  0.500000E-01
     1          3     2     2  0.150000E+00  0.150000E+00  0.500000E-01
     1          3     2     2  0.150000E+00  0.150000E+00  0.500000E-01
     1          3     2     2  0.150000E+00  0.150000E+00  0.500000E-01
     1          3     2     2  0.150000E+00  0.150000E+00  0.500000E-01
     1          4     1     2  0.200000E+00  0.200000E+00  0.500000E-01
     1          4     2     2  0.200000E+00  0.200000E+00  0.500000E-01
     1          4     2     2  0.200000E+00  0.200000E+00  0.500000E-01
     1          4     2     2  0.200000E+00  0.200000E+00  0.500000E-01
     1          4     2     2  0.200000E+00  0.200000E+00  0.500000E-01
     1          5     1     2  0.250000E+00  0.250000E+00  0.500000E-01
     1          5     2     2  0.250000E+00  0.250000E+00  0.500000E-01
     1          5     2     2  0.250000E+00  0.250000E+00  0.500000E-01
     1          6     1     2  0.300000E+00  0.300000E+00  0.500000E-01
     1          6     2     2  0.300000E+00  0.300000E+00  0.500000E-01
     1          7     1     2  0.350000E+00  0.350000E+00  0.500000E-01
     1          7     2     2  0.350000E+00  0.350000E+00  0.500000E-01
     1          7     2     2  0.350000E+00  0.350000E+00  0.500000E-01
     1          7     2     2  0.350000E+00  0.350000E+00  0.500000E-01
     1          7     2     2  0.350000E+00  0.350000E+00  0.500000E-01
     1          7     2     2  0.350000E+00  0.350000E+00  0.500000E-01
     1          7     2     2  0.350000E+00  0.350000E+00  0.500000E-01
     1          7     2     2  0.350000E+00  0.350000E+00  0.500000E-01
     1          7     2     2  0.350000E+00  0.350000E+00  0.500000E-01
     1          7     2     2  0.350000E+00  0.350000E+00  0.500000E-01
     1          7     2     2  0.350000E+00  0.350000E+00  0.500000E-01
     1          7     2     2  0.350000E+00  0.350000E+00  0.500000E-01
     1          7     2     2  0.350000E+00  0.350000E+00  0.500000E-01
     1          8     1     2  0.400000E+00  0.400000E+00  0.500000E-01
     1          8     2     2  0.400000E+00  0.400000E+00  0.500000E-01
     1          8     2     2  0.400000E+00  0.400000E+00  0.500000E-01
     1          8     2     2  0.400000E+00  0.400000E+00  0.500000E-01
     1          8     2     2  0.400000E+00  0.400000E+00  0.500000E-01
     1          8     2     2  0.400000E+00  0.400000E+00  0.500000E-01
     1          8     2     2  0.400000E+00  0.400000E+00  0.500000E-01
     1          9     1     2  0.450000E+00  0.450000E+00  0.500000E-01
     1          9     2     2  0.450000E+00  0.450000E+00  0.500000E-01
     1          9     2     2  0.450000E+00  0.450000E+00  0.500000E-01
     1          9     2     2  0.450000E+00  0.450000E+00  0.500000E-01
     1         10     1     2  0.500000E+00  0.500000E+00  0.500000E-01
     1         10     2     2  0.500000E+00  0.500000E+00  0.500000E-01
     1         10     2     2  0.500000E+00  0.500000E+00  0.500000E-01
     1         10     2     2  0.500000E+00  0.500000E+00  0.500000E-01
     1         10     2     2  0.500000E+00  0.500000E+00  0.500000E-01
     1         10     2     2  0.500000E+00  0.500000E+00  0.500000E-01
     1         10     2     2  0.500000E+00  0.500000E+00  0.500000E-01
     1         10     2     2  0.500000E+00  0.500000E+00  0.500000E-01
     1         10     2     2  0.500000E+00  0.500000E+00  0.500000E-01
     1         10     2     2  0.500000E+00  0.500000E+00  0.500000E-01
     1         10     2     2  0.500000E+00  0.500000E+00  0.500000E-01
     1         10     2     2  0.500000E+00  0.500000E+00  0.500000E-01
