SUMMARY OF JOB INFORMATION
  STEP      INC     ATT  ITRS     TOT TIME     STEP TIME      INC TIME
     1          1     1     2  0.200000E-01  0.200000E-01  0.200000E-01
     1          1     2     2  0.200000E-01  0.200000E-01  0.200000E-01
     1          1     2     2  0.200000E-01  0.200000E-01  0.200000E-01
     1          1     2     2  0.200000E-01  0.200000E-01  0.200000E-01
     1          1     2     2  0.200000E-01  0.200000E-01  0.200000E-01
     1          1     2     2  0.200000E-01  0.200000E-01  0.200000E-01
     1          1     2     2  0.200000E-01  0.200000E-01  0.200000E-01
     1          1     2     2  0.200000E-01  0.200000E-01  0.200000E-01
     1          1     2     2  0.200000E-01  0.200000E-01  0.200000E-01
     1          1     2     2  0.200000E-01  0.200000E-01  0.200000E-01
     1          1     2     2  0.200000E-01  0.200000E-01  0.200000E-01
     1          1     2     2  0.200000E-01  0.200000E-01  0.200000E-01
     1          1     2     2  0.200000E-01  0.200000E-01  0.200000E-01
     1          1     2     2  0.200000E-01  0.200000E-01  0.200000E-01
     1          1     2     2  0.200000E-01  0.200000E-01  0.200000E-01
     1          1     2     2  0.200000E-01  0.200000E-01  0.200000E-01
     1          1     2     2  0.200000E-01  0.200000E-01  0.200000E-01
     1          1     2     2  0.200000E-01  0.200000E-01  0.200000E-01
     1          1     2     2  0.200000E-01  0.200000E-01  0.200000E-01
     1          1     2     2  0.200000E-01  0.200000E-01  0.200000E-01
     1          1     2     2  0.200000E-01  0.200000E-01  0.200000E-01
     1          1     2     2  0.200000E-01  0.200000E-01  0.200000E-01
     1          1     2     2  0.200000E-01  0.200000E-01  0.200000E-01
     1          1     2     2  0.200000E-01  0.200000E-01  0.200000E-01
     1          1     2     2  0.200000E-01  0.200000E-01  0.200000E-01
     1          1     2     2  0.200000E-01  0.200000E-01  0.200000E-01
     1          1     2     2  0.200000E-01  0.200000E-01  0.200000E-01
     1          1     2     2  0.200000E-01  0.200000E-01  0.200000E-01
     1          1     2     2  0.200000E-01  0.200000E-01  0.200000E-01
     1          1     2     2  0.200000E-01  0.200000E-01  0.200000E-01
     1          2     1     2  0.400000E-01  0.400000E-01  0.200000E-01
     1          2     2     2  0.400000E-01  0.400000E-01  0.200000E-01
     1          2     2     2  0.400000E-01  0.400000E-01  0.200000E-01
     1          3     1     2  0.600000E-01  0.600000E-01  0.200000E-01
     1          3     2     2  0.600000E-01  0.600000E-01  0.200000E-01
     1          4     1     2  0.800000E-01  0.800000E-01  0.200000E-01
     1          4     2     2  0.800000E-01  0.800000E-01  0.200000E-01
     1          4     2     2  0.800000E-01  0.800000E-01  0.200000E-01
     1          5     1     2  0.100000E+00  0.100000E+00  0.200000E-01
     1          5     2     2  0.100000E+00  0.100000E+00  0.200000E-01
     1          6     1     2  0.120000E+00  0.120000E+00  0.200000E-01
     1          6     2     2  0.120000E+00  0.120000E+00  0.200000E-01
     1          7     1     2  0.140000E+00  0.140000E+00  0.200000E-01
     1          7     2     2  0.140000E+00  0.140000E+00  0.200000E-01
     1          8     1     2  0.160000E+00  0.160000E+00  0.200000E-01
     1          8     2     2  0.160000E+00  0.160000E+00  0.200000E-01
     1          8     2     2  0.160000E+00  0.160000E+00  0.200000E-01
     1          8     2     2  0.160000E+00  0.160000E+00  0.200000E-01
     1          8     2     2  0.160000E+00  0.160000E+00  0.200000E-01
     1          8     2     2  0.160000E+00  0.160000E+00  0.200000E-01
     1          8     2     2  0.160000E+00  0.160000E+00  0.200000E-01
     1          9     1     2  0.180000E+00  0.180000E+00  0.200000E-01
     1          9     2     2  0.180000E+00  0.180000E+00  0.200000E-01
     1          9     2     2  0.180000E+00  0.180000E+00  0.200000E-01
     1          9     2     2  0.180000E+00  0.180000E+00  0.200000E-01
     1          9     2     2  0.180000E+00  0.180000E+00  0.200000E-01
     1         10     1     2  0.200000E+00  0.200000E+00  0.200000E-01
     1         10     2     2  0.200000E+00  0.200000E+00  0.200000E-01
     1         10     2     2  0.200000E+00  0.200000E+00  0.200000E-01
     1         10     2     2  0.200000E+00  0.200000E+00  0.200000E-01
     1         10     2     2  0.200000E+00  0.200000E+00  0.200000E-01
     1         10     2     2  0.200000E+00  0.200000E+00  0.200000E-01
     1         10     2     2  0.200000E+00  0.200000E+00  0.200000E-01
     1         10     2     2  0.200000E+00  0.200000E+00  0.200000E-01
     1         10     2     2  0.200000E+00  0.200000E+00  0.200000E-01
     1         10     2     2  0.200000E+00  0.200000E+00  0.200000E-01
     1         10     2     2  0.200000E+00  0.200000E+00  0.200000E-01
     1         10     2     2  0.200000E+00  0.200000E+00  0.200000E-01
     1         10     2     2  0.200000E+00  0.200000E+00  0.200000E-01
     1         10     2     2  0.200000E+00  0.200000E+00  0.200000E-01
     1         10     2     2  0.200000E+00  0.200000E+00  0.200000E-01
     1         10     2     2  0.200000E+00  0.200000E+00  0.200000E-01
     1         10     2     2  0.200000E+00  0.200000E+00  0.200000E-01
     1         10     2     2  0.200000E+00  0.200000E+00  0.200000E-01
     1         10     2     2  0.200000E+00  0.200000E+00  0.200000E-01
     1         10     2     2  0.200000E+00  0.200000E+00  0.200000E-01
     1         10     2     2  0.200000E+00  0.200000E+00  0.200000E-01
     1         10     2     2  0.200000E+00  0.200000E+00  0.200000E-01
     1         10     2     2  0.200000E+00  0.200000E+00  0.200000E-01
     1         10     2     2  0.200000E+00  0.200000E+00  0.200000E-01
     1         10     2     2  0.200000E+00  0.200000E+00  0.200000E-01
     1         10     2     2  0.200000E+00  0.200000E+00  0.200000E-01
     1         10     2     2  0.200000E+00  0.200000E+00  0.200000E-01
     1         10     2     2  0.200000E+00  0.200000E+00  0.200000E-01
     1         10     2     2  0.200000E+00  0.200000E+00  0.200000E-01
     1         11     1     2  0.220000E+00  0.220000E+00  0.200000E-01
     1         11     2     2  0.220000E+00  0.220000E+00  0.200000E-01
     1         12     1     2  0.240000E+00  0.240000E+00  0.200000E-01
     1         12     2     2  0.240000E+00  0.240000E+00  0.200000E-01
     1         13     1     2  0.260000E+00  0.260000E+00  0.200000E-01
     1         13     2     2  0.260000E+00  0.260000E+00  0.200000E-01
     1         14     1     2  0.280000E+00  0.280000E+00  0.200000E-01
     1         14     2     2  0.280000E+00  0.280000E+00  0.200000E-01
     1         15     1     2  0.300000E+00  0.300000E+00  0.200000E-01
     1         15     2     2  0.300000E+00  0.300000E+00  0.200000E-01
     1         16     1     2  0.320000E+00  0.320000E+00  0.200000E-01
     1         16     2     2  0.320000E+00  0.320000E+00  0.200000E-01
     1         17     1     2  0.340000E+00  0.340000E+00  0.200000E-01
     1         17     2     2  0.340000E+00  0.340000E+00  0.200000E-01
     1         18     1     2  0.360000E+00  0.360000E+00  0.200000E-01
     1         18     2     2  0.360000E+00  0.360000E+00  0.200000E-01
     1         18     2     2  0.360000E+00  0.360000E+00  0.200000E-01
     1         18     2     2  0.360000E+00  0.360000E+00  0.200000E-01
     1         18     2     2  0.360000E+00  0.360000E+00  0.200000E-01
     1         19     1     2  0.380000E+00  0.380000E+00  0.200000E-01
     1         19     2     2  0.380000E+00  0.380000E+00  0.200000E-01
     1         20     1     2  0.400000E+00  0.400000E+00  0.200000E-01
     1         20     2     2  0.400000E+00  0.400000E+00  0.200000E-01
     1         20     2     2  0.400000E+00  0.400000E+00  0.200000E-01
     1         20     2     2  0.400000E+00  0.400000E+00  0.200000E-01
     1         20     2     2  0.400000E+00  0.400000E+00  0.200000E-01
     1         20     2     2  0.400000E+00  0.400000E+00  0.200000E-01
     1         20     2     2  0.400000E+00  0.400000E+00  0.200000E-01
     1         20     2     2  0.400000E+00  0.400000E+00  0.200000E-01
     1         20     2     2  0.400000E+00  0.400000E+00  0.200000E-01
     1         20     2     2  0.400000E+00  0.400000E+00  0.200000E-01
     1         20     2     2  0.400000E+00  0.400000E+00  0.200000E-01
     1         20     2     2  0.400000E+00  0.400000E+00  0.200000E-01
     1         20     2     2  0.400000E+00  0.400000E+00  0.200000E-01
     1         20     2     2  0.400000E+00  0.400000E+00  0.200000E-01
     1         21     1     2  0.420000E+00  0.420000E+00  0.200000E-01
     1         21     2     2  0.420000E+00  0.420000E+00  0.200000E-01
     1         22     1     2  0.440000E+00  0.440000E+00  0.200000E-01
     1         22     2     2  0.440000E+00  0.440000E+00  0.200000E-01
     1         23     1     2  0.460000E+00  0.460000E+00  0.200000E-01
     1         23     2     2  0.460000E+00  0.460000E+00  0.200000E-01
     1         23     2     2  0.460000E+00  0.460000E+00  0.200000E-01
     1         23     2     2  0.460000E+00  0.460000E+00  0.200000E-01
     1         24     1     2  0.480000E+00  0.480000E+00  0.200000E-01
     1         24     2     2  0.480000E+00  0.480000E+00  0.200000E-01
     1         24     2     2  0.480000E+00  0.480000E+00  0.200000E-01
     1         25     1     2  0.500000E+00  0.500000E+00  0.200000E-01
     1         25     2     2  0.500000E+00  0.500000E+00  0.200000E-01
     1         25     2     2  0.500000E+00  0.500000E+00  0.200000E-01
