SUMMARY OF JOB INFORMATION
  STEP      INC     ATT  ITRS     TOT TIME     STEP TIME      INC TIME
     1          1     1     2  0.250000E-02  0.250000E-02  0.250000E-02
     1          1     2     2  0.250000E-02  0.250000E-02  0.250000E-02
     1          1     2     2  0.250000E-02  0.250000E-02  0.250000E-02
     1          1     2     2  0.250000E-02  0.250000E-02  0.250000E-02
     1          1     2     2  0.250000E-02  0.250000E-02  0.250000E-02
     1          1     2     2  0.250000E-02  0.250000E-02  0.250000E-02
     1          1     2     2  0.250000E-02  0.250000E-02  0.250000E-02
     1          1     2     2  0.250000E-02  0.250000E-02  0.250000E-02
     1          1     2     2  0.250000E-02  0.250000E-02  0.250000E-02
     1          1     2     2  0.250000E-02  0.250000E-02  0.250000E-02
     1          1     2     2  0.250000E-02  0.250000E-02  0.250000E-02
     1          1     2     2  0.250000E-02  0.250000E-02  0.250000E-02
     1          1     2     2  0.250000E-02  0.250000E-02  0.250000E-02
     1          1     2     2  0.250000E-02  0.250000E-02  0.250000E-02
     1          1     2     2  0.250000E-02  0.250000E-02  0.250000E-02
     1          1     2     2  0.250000E-02  0.250000E-02  0.250000E-02
     1          1     2     2  0.250000E-02  0.250000E-02  0.250000E-02
     1          1     2     2  0.250000E-02  0.250000E-02  0.250000E-02
     1          1     2     2  0.250000E-02  0.250000E-02  0.250000E-02
     1          1     2     2  0.250000E-02  0.250000E-02  0.250000E-02
     1          1     2     2  0.250000E-02  0.250000E-02  0.250000E-02
     1          1     2     2  0.250000E-02  0.250000E-02  0.250000E-02
     1          1     2     2  0.250000E-02  0.250000E-02  0.250000E-02
     1          1     2     2  0.250000E-02  0.250000E-02  0.250000E-02
     1          1     2     2  0.250000E-02  0.250000E-02  0.250000E-02
     1          1     2     2  0.250000E-02  0.250000E-02  0.250000E-02
     1          1     2     2  0.250000E-02  0.250000E-02  0.250000E-02
     1          1     2     2  0.250000E-02  0.250000E-02  0.250000E-02
     1          1     2     2  0.250000E-02  0.250000E-02  0.250000E-02
     1          1     2     2  0.250000E-02  0.250000E-02  0.250000E-02
     1          1     2     2  0.250000E-02  0.250000E-02  0.250000E-02
     1          1     2     2  0.250000E-02  0.250000E-02  0.250000E-02
     1          1     2     2  0.250000E-02  0.250000E-02  0.250000E-02
     1          1     2     2  0.250000E-02  0.250000E-02  0.250000E-02
     1          1     2     2  0.250000E-02  0.250000E-02  0.250000E-02
     1          1     2     2  0.250000E-02  0.250000E-02  0.250000E-02
     1          1     2     2  0.250000E-02  0.250000E-02  0.250000E-02
     1          1     2     2  0.250000E-02  0.250000E-02  0.250000E-02
     1          1     2     2  0.250000E-02  0.250000E-02  0.250000E-02
     1          1     2     2  0.250000E-02  0.250000E-02  0.250000E-02
     1          1     2     2  0.250000E-02  0.250000E-02  0.250000E-02
     1          1     2     2  0.250000E-02  0.250000E-02  0.250000E-02
     1          1     2     2  0.250000E-02  0.250000E-02  0.250000E-02
     1          1     2     2  0.250000E-02  0.250000E-02  0.250000E-02
     1          1     2     2  0.250000E-02  0.250000E-02  0.250000E-02
     1          1     2     2  0.250000E-02  0.250000E-02  0.250000E-02
     1          1     2     2  0.250000E-02  0.250000E-02  0.250000E-02
     1          1     2     2  0.250000E-02  0.250000E-02  0.250000E-02
     1          1     2     2  0.250000E-02  0.250000E-02  0.250000E-02
     1          1     2     2  0.250000E-02  0.250000E-02  0.250000E-02
     1          1     2     2  0.250000E-02  0.250000E-02  0.250000E-02
     1          1     2     2  0.250000E-02  0.250000E-02  0.250000E-02
     1          1     2     2  0.250000E-02  0.250000E-02  0.250000E-02
     1          1     2     2  0.250000E-02  0.250000E-02  0.250000E-02
     1          1     2     2  0.250000E-02  0.250000E-02  0.250000E-02
     1          1     2     2  0.250000E-02  0.250000E-02  0.250000E-02
     1          1     2     2  0.250000E-02  0.250000E-02  0.250000E-02
     1          1     2     2  0.250000E-02  0.250000E-02  0.250000E-02
     1          1     2     2  0.250000E-02  0.250000E-02  0.250000E-02
     1          1     2     2  0.250000E-02  0.250000E-02  0.250000E-02
     1          1     2     2  0.250000E-02  0.250000E-02  0.250000E-02
     1          1     2     2  0.250000E-02  0.250000E-02  0.250000E-02
     1          1     2     2  0.250000E-02  0.250000E-02  0.250000E-02
     1          1     2     2  0.250000E-02  0.250000E-02  0.250000E-02
     1          1     2     2  0.250000E-02  0.250000E-02  0.250000E-02
     1          1     2     2  0.250000E-02  0.250000E-02  0.250000E-02
     1          1     2     2  0.250000E-02  0.250000E-02  0.250000E-02
     1          1     2     2  0.250000E-02  0.250000E-02  0.250000E-02
     1          1     2     2  0.250000E-02  0.250000E-02  0.250000E-02
     1          1     2     2  0.250000E-02  0.250000E-02  0.250000E-02
     1          1     2     2  0.250000E-02  0.250000E-02  0.250000E-02
     1          1     2     2  0.250000E-02  0.250000E-02  0.250000E-02
     1          1     2     2  0.250000E-02  0.250000E-02  0.250000E-02
     1          1     2     2  0.250000E-02  0.250000E-02  0.250000E-02
     1          1     2     2  0.250000E-02  0.250000E-02  0.250000E-02
     1          1     2     2  0.250000E-02  0.250000E-02  0.250000E-02
     1          1     2     2  0.250000E-02  0.250000E-02  0.250000E-02
     1          1     2     2  0.250000E-02  0.250000E-02  0.250000E-02
     1          1     2     2  0.250000E-02  0.250000E-02  0.250000E-02
     1          1     2     2  0.250000E-02  0.250000E-02  0.250000E-02
     1          1     2     2  0.250000E-02  0.250000E-02  0.250000E-02
     1          1     2     2  0.250000E-02  0.250000E-02  0.250000E-02
     1          1     2     2  0.250000E-02  0.250000E-02  0.250000E-02
     1          1     2     2  0.250000E-02  0.250000E-02  0.250000E-02
     1          1     2     2  0.250000E-02  0.250000E-02  0.250000E-02
     1          1     2     2  0.250000E-02  0.250000E-02  0.250000E-02
     1          1     2     2  0.250000E-02  0.250000E-02  0.250000E-02
     1          1     2     2  0.250000E-02  0.250000E-02  0.250000E-02
     1          1     2     2  0.250000E-02  0.250000E-02  0.250000E-02
     1          1     2     2  0.250000E-02  0.250000E-02  0.250000E-02
     1          1     2     2  0.250000E-02  0.250000E-02  0.250000E-02
     1          1     2     2  0.250000E-02  0.250000E-02  0.250000E-02
     1          1     2     2  0.250000E-02  0.250000E-02  0.250000E-02
     1          1     2     2  0.250000E-02  0.250000E-02  0.250000E-02
     1          1     2     2  0.250000E-02  0.250000E-02  0.250000E-02
     1          1     2     2  0.250000E-02  0.250000E-02  0.250000E-02
     1          1     2     2  0.250000E-02  0.250000E-02  0.250000E-02
     1          1     2     2  0.250000E-02  0.250000E-02  0.250000E-02
     1          1     2     2  0.250000E-02  0.250000E-02  0.250000E-02
     1          1     2     2  0.250000E-02  0.250000E-02  0.250000E-02
     1          1     2     2  0.250000E-02  0.250000E-02  0.250000E-02
     1          1     2     2  0.250000E-02  0.250000E-02  0.250000E-02
     1          1     2     2  0.250000E-02  0.250000E-02  0.250000E-02
     1          1     2     2  0.250000E-02  0.250000E-02  0.250000E-02
     1          2     1     2  0.500000E-02  0.500000E-02  0.250000E-02
     1          2     2     2  0.500000E-02  0.500000E-02  0.250000E-02
     1          2     2     2  0.500000E-02  0.500000E-02  0.250000E-02
     1          2     2     2  0.500000E-02  0.500000E-02  0.250000E-02
     1          2     2     2  0.500000E-02  0.500000E-02  0.250000E-02
     1          2     2     2  0.500000E-02  0.500000E-02  0.250000E-02
     1          2     2     2  0.500000E-02  0.500000E-02  0.250000E-02
     1          2     2     2  0.500000E-02  0.500000E-02  0.250000E-02
     1          2     2     2  0.500000E-02  0.500000E-02  0.250000E-02
     1          2     2     2  0.500000E-02  0.500000E-02  0.250000E-02
     1          2     2     2  0.500000E-02  0.500000E-02  0.250000E-02
     1          2     2     2  0.500000E-02  0.500000E-02  0.250000E-02
     1          2     2     2  0.500000E-02  0.500000E-02  0.250000E-02
     1          2     2     2  0.500000E-02  0.500000E-02  0.250000E-02
     1          2     2     2  0.500000E-02  0.500000E-02  0.250000E-02
     1          2     2     2  0.500000E-02  0.500000E-02  0.250000E-02
     1          2     2     2  0.500000E-02  0.500000E-02  0.250000E-02
     1          2     2     2  0.500000E-02  0.500000E-02  0.250000E-02
     1          2     2     2  0.500000E-02  0.500000E-02  0.250000E-02
     1          2     2     2  0.500000E-02  0.500000E-02  0.250000E-02
     1          2     2     2  0.500000E-02  0.500000E-02  0.250000E-02
     1          2     2     2  0.500000E-02  0.500000E-02  0.250000E-02
     1          2     2     2  0.500000E-02  0.500000E-02  0.250000E-02
     1          2     2     2  0.500000E-02  0.500000E-02  0.250000E-02
     1          2     2     2  0.500000E-02  0.500000E-02  0.250000E-02
     1          2     2     2  0.500000E-02  0.500000E-02  0.250000E-02
     1          2     2     2  0.500000E-02  0.500000E-02  0.250000E-02
     1          2     2     2  0.500000E-02  0.500000E-02  0.250000E-02
     1          2     2     2  0.500000E-02  0.500000E-02  0.250000E-02
     1          2     2     2  0.500000E-02  0.500000E-02  0.250000E-02
     1          2     2     2  0.500000E-02  0.500000E-02  0.250000E-02
     1          2     2     2  0.500000E-02  0.500000E-02  0.250000E-02
     1          2     2     2  0.500000E-02  0.500000E-02  0.250000E-02
     1          2     2     2  0.500000E-02  0.500000E-02  0.250000E-02
     1          2     2     2  0.500000E-02  0.500000E-02  0.250000E-02
     1          2     2     2  0.500000E-02  0.500000E-02  0.250000E-02
     1          2     2     2  0.500000E-02  0.500000E-02  0.250000E-02
     1          2     2     2  0.500000E-02  0.500000E-02  0.250000E-02
     1          2     2     2  0.500000E-02  0.500000E-02  0.250000E-02
     1          2     2     2  0.500000E-02  0.500000E-02  0.250000E-02
     1          2     2     2  0.500000E-02  0.500000E-02  0.250000E-02
     1          2     2     2  0.500000E-02  0.500000E-02  0.250000E-02
     1          2     2     2  0.500000E-02  0.500000E-02  0.250000E-02
     1          2     2     2  0.500000E-02  0.500000E-02  0.250000E-02
     1          2     2     2  0.500000E-02  0.500000E-02  0.250000E-02
     1          2     2     2  0.500000E-02  0.500000E-02  0.250000E-02
     1          2     2     2  0.500000E-02  0.500000E-02  0.250000E-02
     1          2     2     2  0.500000E-02  0.500000E-02  0.250000E-02
     1          2     2     2  0.500000E-02  0.500000E-02  0.250000E-02
     1          2     2     2  0.500000E-02  0.500000E-02  0.250000E-02
     1          2     2     2  0.500000E-02  0.500000E-02  0.250000E-02
     1          2     2     2  0.500000E-02  0.500000E-02  0.250000E-02
     1          2     2     2  0.500000E-02  0.500000E-02  0.250000E-02
     1          2     2     2  0.500000E-02  0.500000E-02  0.250000E-02
     1          3     1     2  0.750000E-02  0.750000E-02  0.250000E-02
     1          3     2     2  0.750000E-02  0.750000E-02  0.250000E-02
     1          3     2     2  0.750000E-02  0.750000E-02  0.250000E-02
     1          3     2     2  0.750000E-02  0.750000E-02  0.250000E-02
     1          3     2     2  0.750000E-02  0.750000E-02  0.250000E-02
     1          3     2     2  0.750000E-02  0.750000E-02  0.250000E-02
     1          3     2     2  0.750000E-02  0.750000E-02  0.250000E-02
     1          3     2     2  0.750000E-02  0.750000E-02  0.250000E-02
     1          3     2     2  0.750000E-02  0.750000E-02  0.250000E-02
     1          3     2     2  0.750000E-02  0.750000E-02  0.250000E-02
     1          3     2     2  0.750000E-02  0.750000E-02  0.250000E-02
     1          3     2     2  0.750000E-02  0.750000E-02  0.250000E-02
     1          3     2     2  0.750000E-02  0.750000E-02  0.250000E-02
     1          3     2     2  0.750000E-02  0.750000E-02  0.250000E-02
     1          3     2     2  0.750000E-02  0.750000E-02  0.250000E-02
     1          3     2     2  0.750000E-02  0.750000E-02  0.250000E-02
     1          3     2     2  0.750000E-02  0.750000E-02  0.250000E-02
     1          3     2     2  0.750000E-02  0.750000E-02  0.250000E-02
     1          3     2     2  0.750000E-02  0.750000E-02  0.250000E-02
     1          3     2     2  0.750000E-02  0.750000E-02  0.250000E-02
     1          3     2     2  0.750000E-02  0.750000E-02  0.250000E-02
     1          3     2     2  0.750000E-02  0.750000E-02  0.250000E-02
     1          3     2     2  0.750000E-02  0.750000E-02  0.250000E-02
     1          3     2     2  0.750000E-02  0.750000E-02  0.250000E-02
     1          3     2     2  0.750000E-02  0.750000E-02  0.250000E-02
     1          3     2     2  0.750000E-02  0.750000E-02  0.250000E-02
     1          3     2     2  0.750000E-02  0.750000E-02  0.250000E-02
     1          3     2     2  0.750000E-02  0.750000E-02  0.250000E-02
     1          3     2     2  0.750000E-02  0.750000E-02  0.250000E-02
     1          3     2     2  0.750000E-02  0.750000E-02  0.250000E-02
     1          3     2     2  0.750000E-02  0.750000E-02  0.250000E-02
     1          3     2     2  0.750000E-02  0.750000E-02  0.250000E-02
     1          3     2     2  0.750000E-02  0.750000E-02  0.250000E-02
     1          3     2     2  0.750000E-02  0.750000E-02  0.250000E-02
     1          3     2     2  0.750000E-02  0.750000E-02  0.250000E-02
     1          3     2     2  0.750000E-02  0.750000E-02  0.250000E-02
     1          3     2     2  0.750000E-02  0.750000E-02  0.250000E-02
     1          3     2     2  0.750000E-02  0.750000E-02  0.250000E-02
     1          3     2     2  0.750000E-02  0.750000E-02  0.250000E-02
     1          3     2     2  0.750000E-02  0.750000E-02  0.250000E-02
     1          3     2     2  0.750000E-02  0.750000E-02  0.250000E-02
     1          3     2     2  0.750000E-02  0.750000E-02  0.250000E-02
     1          4     1     2  0.100000E-01  0.100000E-01  0.250000E-02
     1          4     2     2  0.100000E-01  0.100000E-01  0.250000E-02
     1          4     2     2  0.100000E-01  0.100000E-01  0.250000E-02
     1          4     2     2  0.100000E-01  0.100000E-01  0.250000E-02
     1          4     2     2  0.100000E-01  0.100000E-01  0.250000E-02
     1          4     2     2  0.100000E-01  0.100000E-01  0.250000E-02
     1          4     2     2  0.100000E-01  0.100000E-01  0.250000E-02
     1          4     2     2  0.100000E-01  0.100000E-01  0.250000E-02
     1          4     2     2  0.100000E-01  0.100000E-01  0.250000E-02
     1          4     2     2  0.100000E-01  0.100000E-01  0.250000E-02
     1          4     2     2  0.100000E-01  0.100000E-01  0.250000E-02
     1          4     2     2  0.100000E-01  0.100000E-01  0.250000E-02
     1          4     2     2  0.100000E-01  0.100000E-01  0.250000E-02
     1          4     2     2  0.100000E-01  0.100000E-01  0.250000E-02
     1          4     2     2  0.100000E-01  0.100000E-01  0.250000E-02
     1          4     2     2  0.100000E-01  0.100000E-01  0.250000E-02
     1          4     2     2  0.100000E-01  0.100000E-01  0.250000E-02
     1          4     2     2  0.100000E-01  0.100000E-01  0.250000E-02
     1          4     2     2  0.100000E-01  0.100000E-01  0.250000E-02
     1          4     2     2  0.100000E-01  0.100000E-01  0.250000E-02
     1          4     2     2  0.100000E-01  0.100000E-01  0.250000E-02
     1          4     2     2  0.100000E-01  0.100000E-01  0.250000E-02
     1          4     2     2  0.100000E-01  0.100000E-01  0.250000E-02
     1          4     2     2  0.100000E-01  0.100000E-01  0.250000E-02
     1          4     2     2  0.100000E-01  0.100000E-01  0.250000E-02
     1          4     2     2  0.100000E-01  0.100000E-01  0.250000E-02
     1          4     2     2  0.100000E-01  0.100000E-01  0.250000E-02
     1          4     2     2  0.100000E-01  0.100000E-01  0.250000E-02
     1          4     2     2  0.100000E-01  0.100000E-01  0.250000E-02
     1          4     2     2  0.100000E-01  0.100000E-01  0.250000E-02
     1          4     2     2  0.100000E-01  0.100000E-01  0.250000E-02
     1          4     2     2  0.100000E-01  0.100000E-01  0.250000E-02
     1          4     2     2  0.100000E-01  0.100000E-01  0.250000E-02
     1          4     2     2  0.100000E-01  0.100000E-01  0.250000E-02
     1          4     2     2  0.100000E-01  0.100000E-01  0.250000E-02
     1          4     2     2  0.100000E-01  0.100000E-01  0.250000E-02
     1          4     2     2  0.100000E-01  0.100000E-01  0.250000E-02
     1          4     2     2  0.100000E-01  0.100000E-01  0.250000E-02
     1          4     2     2  0.100000E-01  0.100000E-01  0.250000E-02
     1          4     2     2  0.100000E-01  0.100000E-01  0.250000E-02
     1          4     2     2  0.100000E-01  0.100000E-01  0.250000E-02
     1          4     2     2  0.100000E-01  0.100000E-01  0.250000E-02
     1          4     2     2  0.100000E-01  0.100000E-01  0.250000E-02
     1          4     2     2  0.100000E-01  0.100000E-01  0.250000E-02
     1          4     2     2  0.100000E-01  0.100000E-01  0.250000E-02
     1          4     2     2  0.100000E-01  0.100000E-01  0.250000E-02
     1          4     2     2  0.100000E-01  0.100000E-01  0.250000E-02
     1          4     2     2  0.100000E-01  0.100000E-01  0.250000E-02
     1          4     2     2  0.100000E-01  0.100000E-01  0.250000E-02
     1          4     2     2  0.100000E-01  0.100000E-01  0.250000E-02
     1          4     2     2  0.100000E-01  0.100000E-01  0.250000E-02
     1          4     2     2  0.100000E-01  0.100000E-01  0.250000E-02
     1          4     2     2  0.100000E-01  0.100000E-01  0.250000E-02
     1          4     2     2  0.100000E-01  0.100000E-01  0.250000E-02
     1          4     2     2  0.100000E-01  0.100000E-01  0.250000E-02
     1          4     2     2  0.100000E-01  0.100000E-01  0.250000E-02
     1          4     2     2  0.100000E-01  0.100000E-01  0.250000E-02
     1          4     2     2  0.100000E-01  0.100000E-01  0.250000E-02
     1          4     2     2  0.100000E-01  0.100000E-01  0.250000E-02
     1          4     2     2  0.100000E-01  0.100000E-01  0.250000E-02
     1          4     2     2  0.100000E-01  0.100000E-01  0.250000E-02
     1          4     2     2  0.100000E-01  0.100000E-01  0.250000E-02
     1          4     2     2  0.100000E-01  0.100000E-01  0.250000E-02
     1          4     2     2  0.100000E-01  0.100000E-01  0.250000E-02
     1          4     2     2  0.100000E-01  0.100000E-01  0.250000E-02
     1          4     2     2  0.100000E-01  0.100000E-01  0.250000E-02
     1          4     2     2  0.100000E-01  0.100000E-01  0.250000E-02
     1          4     2     2  0.100000E-01  0.100000E-01  0.250000E-02
     1          4     2     2  0.100000E-01  0.100000E-01  0.250000E-02
     1          4     2     2  0.100000E-01  0.100000E-01  0.250000E-02
     1          4     2     2  0.100000E-01  0.100000E-01  0.250000E-02
     1          4     2     2  0.100000E-01  0.100000E-01  0.250000E-02
     1          4     2     2  0.100000E-01  0.100000E-01  0.250000E-02
     1          4     2     2  0.100000E-01  0.100000E-01  0.250000E-02
     1          4     2     2  0.100000E-01  0.100000E-01  0.250000E-02
     1          4     2     2  0.100000E-01  0.100000E-01  0.250000E-02
     1          4     2     2  0.100000E-01  0.100000E-01  0.250000E-02
     1          4     2     2  0.100000E-01  0.100000E-01  0.250000E-02
     1          4     2     2  0.100000E-01  0.100000E-01  0.250000E-02
     1          4     2     2  0.100000E-01  0.100000E-01  0.250000E-02
     1          4     2     2  0.100000E-01  0.100000E-01  0.250000E-02
     1          4     2     2  0.100000E-01  0.100000E-01  0.250000E-02
     1          4     2     2  0.100000E-01  0.100000E-01  0.250000E-02
     1          4     2     2  0.100000E-01  0.100000E-01  0.250000E-02
     1          4     2     2  0.100000E-01  0.100000E-01  0.250000E-02
     1          4     2     2  0.100000E-01  0.100000E-01  0.250000E-02
     1          4     2     2  0.100000E-01  0.100000E-01  0.250000E-02
     1          4     2     2  0.100000E-01  0.100000E-01  0.250000E-02
     1          4     2     2  0.100000E-01  0.100000E-01  0.250000E-02
     1          4     2     2  0.100000E-01  0.100000E-01  0.250000E-02
     1          4     2     2  0.100000E-01  0.100000E-01  0.250000E-02
     1          4     2     2  0.100000E-01  0.100000E-01  0.250000E-02
     1          4     2     2  0.100000E-01  0.100000E-01  0.250000E-02
     1          4     2     2  0.100000E-01  0.100000E-01  0.250000E-02
     1          4     2     2  0.100000E-01  0.100000E-01  0.250000E-02
     1          4     2     2  0.100000E-01  0.100000E-01  0.250000E-02
     1          5     1     2  0.125000E-01  0.125000E-01  0.250000E-02
     1          5     2     2  0.125000E-01  0.125000E-01  0.250000E-02
     1          5     2     2  0.125000E-01  0.125000E-01  0.250000E-02
     1          5     2     2  0.125000E-01  0.125000E-01  0.250000E-02
     1          5     2     2  0.125000E-01  0.125000E-01  0.250000E-02
     1          5     2     2  0.125000E-01  0.125000E-01  0.250000E-02
     1          5     2     2  0.125000E-01  0.125000E-01  0.250000E-02
     1          5     2     2  0.125000E-01  0.125000E-01  0.250000E-02
     1          5     2     2  0.125000E-01  0.125000E-01  0.250000E-02
     1          5     2     2  0.125000E-01  0.125000E-01  0.250000E-02
     1          5     2     2  0.125000E-01  0.125000E-01  0.250000E-02
     1          5     2     2  0.125000E-01  0.125000E-01  0.250000E-02
     1          5     2     2  0.125000E-01  0.125000E-01  0.250000E-02
     1          5     2     2  0.125000E-01  0.125000E-01  0.250000E-02
     1          5     2     2  0.125000E-01  0.125000E-01  0.250000E-02
     1          5     2     2  0.125000E-01  0.125000E-01  0.250000E-02
     1          5     2     2  0.125000E-01  0.125000E-01  0.250000E-02
     1          5     2     2  0.125000E-01  0.125000E-01  0.250000E-02
     1          5     2     2  0.125000E-01  0.125000E-01  0.250000E-02
     1          5     2     2  0.125000E-01  0.125000E-01  0.250000E-02
     1          5     2     2  0.125000E-01  0.125000E-01  0.250000E-02
     1          5     2     2  0.125000E-01  0.125000E-01  0.250000E-02
     1          5     2     2  0.125000E-01  0.125000E-01  0.250000E-02
     1          5     2     2  0.125000E-01  0.125000E-01  0.250000E-02
     1          5     2     2  0.125000E-01  0.125000E-01  0.250000E-02
     1          5     2     2  0.125000E-01  0.125000E-01  0.250000E-02
     1          5     2     2  0.125000E-01  0.125000E-01  0.250000E-02
     1          5     2     2  0.125000E-01  0.125000E-01  0.250000E-02
     1          5     2     2  0.125000E-01  0.125000E-01  0.250000E-02
     1          5     2     2  0.125000E-01  0.125000E-01  0.250000E-02
     1          5     2     2  0.125000E-01  0.125000E-01  0.250000E-02
     1          5     2     2  0.125000E-01  0.125000E-01  0.250000E-02
     1          5     2     2  0.125000E-01  0.125000E-01  0.250000E-02
     1          5     2     2  0.125000E-01  0.125000E-01  0.250000E-02
     1          5     2     2  0.125000E-01  0.125000E-01  0.250000E-02
     1          5     2     2  0.125000E-01  0.125000E-01  0.250000E-02
     1          5     2     2  0.125000E-01  0.125000E-01  0.250000E-02
     1          5     2     2  0.125000E-01  0.125000E-01  0.250000E-02
     1          5     2     2  0.125000E-01  0.125000E-01  0.250000E-02
     1          5     2     2  0.125000E-01  0.125000E-01  0.250000E-02
     1          5     2     2  0.125000E-01  0.125000E-01  0.250000E-02
     1          5     2     2  0.125000E-01  0.125000E-01  0.250000E-02
     1          5     2     2  0.125000E-01  0.125000E-01  0.250000E-02
     1          5     2     2  0.125000E-01  0.125000E-01  0.250000E-02
     1          5     2     2  0.125000E-01  0.125000E-01  0.250000E-02
     1          5     2     2  0.125000E-01  0.125000E-01  0.250000E-02
     1          5     2     2  0.125000E-01  0.125000E-01  0.250000E-02
     1          5     2     2  0.125000E-01  0.125000E-01  0.250000E-02
     1          5     2     2  0.125000E-01  0.125000E-01  0.250000E-02
     1          5     2     2  0.125000E-01  0.125000E-01  0.250000E-02
     1          5     2     2  0.125000E-01  0.125000E-01  0.250000E-02
     1          5     2     2  0.125000E-01  0.125000E-01  0.250000E-02
     1          5     2     2  0.125000E-01  0.125000E-01  0.250000E-02
     1          5     2     2  0.125000E-01  0.125000E-01  0.250000E-02
     1          5     2     2  0.125000E-01  0.125000E-01  0.250000E-02
     1          5     2     2  0.125000E-01  0.125000E-01  0.250000E-02
     1          5     2     2  0.125000E-01  0.125000E-01  0.250000E-02
     1          5     2     2  0.125000E-01  0.125000E-01  0.250000E-02
     1          5     2     2  0.125000E-01  0.125000E-01  0.250000E-02
     1          5     2     2  0.125000E-01  0.125000E-01  0.250000E-02
     1          5     2     2  0.125000E-01  0.125000E-01  0.250000E-02
     1          5     2     2  0.125000E-01  0.125000E-01  0.250000E-02
     1          5     2     2  0.125000E-01  0.125000E-01  0.250000E-02
     1          5     2     2  0.125000E-01  0.125000E-01  0.250000E-02
     1          5     2     2  0.125000E-01  0.125000E-01  0.250000E-02
     1          5     2     2  0.125000E-01  0.125000E-01  0.250000E-02
     1          5     2     2  0.125000E-01  0.125000E-01  0.250000E-02
     1          5     2     2  0.125000E-01  0.125000E-01  0.250000E-02
     1          5     2     2  0.125000E-01  0.125000E-01  0.250000E-02
     1          5     2     2  0.125000E-01  0.125000E-01  0.250000E-02
     1          5     2     2  0.125000E-01  0.125000E-01  0.250000E-02
     1          5     2     2  0.125000E-01  0.125000E-01  0.250000E-02
     1          5     2     2  0.125000E-01  0.125000E-01  0.250000E-02
     1          5     2     2  0.125000E-01  0.125000E-01  0.250000E-02
     1          5     2     2  0.125000E-01  0.125000E-01  0.250000E-02
     1          5     2     2  0.125000E-01  0.125000E-01  0.250000E-02
     1          5     2     2  0.125000E-01  0.125000E-01  0.250000E-02
     1          5     2     2  0.125000E-01  0.125000E-01  0.250000E-02
     1          5     2     2  0.125000E-01  0.125000E-01  0.250000E-02
     1          5     2     2  0.125000E-01  0.125000E-01  0.250000E-02
     1          5     2     2  0.125000E-01  0.125000E-01  0.250000E-02
     1          5     2     2  0.125000E-01  0.125000E-01  0.250000E-02
     1          5     2     2  0.125000E-01  0.125000E-01  0.250000E-02
     1          5     2     2  0.125000E-01  0.125000E-01  0.250000E-02
     1          5     2     2  0.125000E-01  0.125000E-01  0.250000E-02
     1          5     2     2  0.125000E-01  0.125000E-01  0.250000E-02
     1          5     2     2  0.125000E-01  0.125000E-01  0.250000E-02
     1          5     2     2  0.125000E-01  0.125000E-01  0.250000E-02
     1          5     2     2  0.125000E-01  0.125000E-01  0.250000E-02
     1          5     2     2  0.125000E-01  0.125000E-01  0.250000E-02
     1          5     2     2  0.125000E-01  0.125000E-01  0.250000E-02
     1          5     2     2  0.125000E-01  0.125000E-01  0.250000E-02
     1          5     2     2  0.125000E-01  0.125000E-01  0.250000E-02
     1          5     2     2  0.125000E-01  0.125000E-01  0.250000E-02
     1          5     2     2  0.125000E-01  0.125000E-01  0.250000E-02
     1          5     2     2  0.125000E-01  0.125000E-01  0.250000E-02
     1          5     2     2  0.125000E-01  0.125000E-01  0.250000E-02
     1          5     2     2  0.125000E-01  0.125000E-01  0.250000E-02
     1          5     2     2  0.125000E-01  0.125000E-01  0.250000E-02
     1          5     2     2  0.125000E-01  0.125000E-01  0.250000E-02
     1          5     2     2  0.125000E-01  0.125000E-01  0.250000E-02
     1          5     2     2  0.125000E-01  0.125000E-01  0.250000E-02
     1          5     2     2  0.125000E-01  0.125000E-01  0.250000E-02
     1          5     2     2  0.125000E-01  0.125000E-01  0.250000E-02
     1          5     2     2  0.125000E-01  0.125000E-01  0.250000E-02
     1          5     2     2  0.125000E-01  0.125000E-01  0.250000E-02
     1          5     2     2  0.125000E-01  0.125000E-01  0.250000E-02
     1          5     2     2  0.125000E-01  0.125000E-01  0.250000E-02
     1          5     2     2  0.125000E-01  0.125000E-01  0.250000E-02
     1          5     2     2  0.125000E-01  0.125000E-01  0.250000E-02
     1          5     2     2  0.125000E-01  0.125000E-01  0.250000E-02
     1          5     2     2  0.125000E-01  0.125000E-01  0.250000E-02
     1          5     2     2  0.125000E-01  0.125000E-01  0.250000E-02
     1          5     2     2  0.125000E-01  0.125000E-01  0.250000E-02
     1          5     2     2  0.125000E-01  0.125000E-01  0.250000E-02
     1          5     2     2  0.125000E-01  0.125000E-01  0.250000E-02
     1          5     2     2  0.125000E-01  0.125000E-01  0.250000E-02
     1          5     2     2  0.125000E-01  0.125000E-01  0.250000E-02
     1          5     2     2  0.125000E-01  0.125000E-01  0.250000E-02
     1          5     2     2  0.125000E-01  0.125000E-01  0.250000E-02
     1          5     2     2  0.125000E-01  0.125000E-01  0.250000E-02
     1          5     2     2  0.125000E-01  0.125000E-01  0.250000E-02
     1          5     2     2  0.125000E-01  0.125000E-01  0.250000E-02
     1          5     2     2  0.125000E-01  0.125000E-01  0.250000E-02
     1          5     2     2  0.125000E-01  0.125000E-01  0.250000E-02
     1          5     2     2  0.125000E-01  0.125000E-01  0.250000E-02
     1          5     2     2  0.125000E-01  0.125000E-01  0.250000E-02
     1          5     2     2  0.125000E-01  0.125000E-01  0.250000E-02
     1          5     2     2  0.125000E-01  0.125000E-01  0.250000E-02
     1          5     2     2  0.125000E-01  0.125000E-01  0.250000E-02
     1          5     2     2  0.125000E-01  0.125000E-01  0.250000E-02
     1          5     2     2  0.125000E-01  0.125000E-01  0.250000E-02
     1          5     2     2  0.125000E-01  0.125000E-01  0.250000E-02
     1          5     2     2  0.125000E-01  0.125000E-01  0.250000E-02
     1          5     2     2  0.125000E-01  0.125000E-01  0.250000E-02
     1          5     2     2  0.125000E-01  0.125000E-01  0.250000E-02
     1          5     2     2  0.125000E-01  0.125000E-01  0.250000E-02
     1          5     2     2  0.125000E-01  0.125000E-01  0.250000E-02
     1          5     2     2  0.125000E-01  0.125000E-01  0.250000E-02
     1          5     2     2  0.125000E-01  0.125000E-01  0.250000E-02
     1          5     2     2  0.125000E-01  0.125000E-01  0.250000E-02
     1          5     2     2  0.125000E-01  0.125000E-01  0.250000E-02
     1          5     2     2  0.125000E-01  0.125000E-01  0.250000E-02
     1          5     2     2  0.125000E-01  0.125000E-01  0.250000E-02
     1          5     2     2  0.125000E-01  0.125000E-01  0.250000E-02
     1          5     2     2  0.125000E-01  0.125000E-01  0.250000E-02
     1          5     2     2  0.125000E-01  0.125000E-01  0.250000E-02
     1          5     2     2  0.125000E-01  0.125000E-01  0.250000E-02
     1          5     2     2  0.125000E-01  0.125000E-01  0.250000E-02
     1          5     2     2  0.125000E-01  0.125000E-01  0.250000E-02
     1          5     2     2  0.125000E-01  0.125000E-01  0.250000E-02
     1          5     2     2  0.125000E-01  0.125000E-01  0.250000E-02
     1          5     2     2  0.125000E-01  0.125000E-01  0.250000E-02
     1          5     2     2  0.125000E-01  0.125000E-01  0.250000E-02
     1          5     2     2  0.125000E-01  0.125000E-01  0.250000E-02
     1          5     2     2  0.125000E-01  0.125000E-01  0.250000E-02
     1          5     2     2  0.125000E-01  0.125000E-01  0.250000E-02
     1          5     2     2  0.125000E-01  0.125000E-01  0.250000E-02
     1          5     2     2  0.125000E-01  0.125000E-01  0.250000E-02
     1          5     2     2  0.125000E-01  0.125000E-01  0.250000E-02
     1          5     2     2  0.125000E-01  0.125000E-01  0.250000E-02
     1          5     2     2  0.125000E-01  0.125000E-01  0.250000E-02
     1          5     2     2  0.125000E-01  0.125000E-01  0.250000E-02
     1          5     2     2  0.125000E-01  0.125000E-01  0.250000E-02
     1          5     2     2  0.125000E-01  0.125000E-01  0.250000E-02
     1          5     2     2  0.125000E-01  0.125000E-01  0.250000E-02
     1          5     2     2  0.125000E-01  0.125000E-01  0.250000E-02
     1          5     2     2  0.125000E-01  0.125000E-01  0.250000E-02
     1          5     2     2  0.125000E-01  0.125000E-01  0.250000E-02
     1          5     2     2  0.125000E-01  0.125000E-01  0.250000E-02
     1          5     2     2  0.125000E-01  0.125000E-01  0.250000E-02
     1          5     2     2  0.125000E-01  0.125000E-01  0.250000E-02
     1          6     1     2  0.150000E-01  0.150000E-01  0.250000E-02
     1          6     2     2  0.150000E-01  0.150000E-01  0.250000E-02
     1          6     2     2  0.150000E-01  0.150000E-01  0.250000E-02
     1          6     2     2  0.150000E-01  0.150000E-01  0.250000E-02
     1          6     2     2  0.150000E-01  0.150000E-01  0.250000E-02
     1          6     2     2  0.150000E-01  0.150000E-01  0.250000E-02
     1          6     2     2  0.150000E-01  0.150000E-01  0.250000E-02
     1          6     2     2  0.150000E-01  0.150000E-01  0.250000E-02
     1          6     2     2  0.150000E-01  0.150000E-01  0.250000E-02
     1          6     2     2  0.150000E-01  0.150000E-01  0.250000E-02
     1          6     2     2  0.150000E-01  0.150000E-01  0.250000E-02
     1          6     2     2  0.150000E-01  0.150000E-01  0.250000E-02
     1          6     2     2  0.150000E-01  0.150000E-01  0.250000E-02
     1          6     2     2  0.150000E-01  0.150000E-01  0.250000E-02
     1          6     2     2  0.150000E-01  0.150000E-01  0.250000E-02
     1          6     2     2  0.150000E-01  0.150000E-01  0.250000E-02
     1          6     2     2  0.150000E-01  0.150000E-01  0.250000E-02
     1          6     2     2  0.150000E-01  0.150000E-01  0.250000E-02
     1          6     2     2  0.150000E-01  0.150000E-01  0.250000E-02
     1          6     2     2  0.150000E-01  0.150000E-01  0.250000E-02
     1          6     2     2  0.150000E-01  0.150000E-01  0.250000E-02
     1          6     2     2  0.150000E-01  0.150000E-01  0.250000E-02
     1          6     2     2  0.150000E-01  0.150000E-01  0.250000E-02
     1          6     2     2  0.150000E-01  0.150000E-01  0.250000E-02
     1          6     2     2  0.150000E-01  0.150000E-01  0.250000E-02
     1          6     2     2  0.150000E-01  0.150000E-01  0.250000E-02
     1          6     2     2  0.150000E-01  0.150000E-01  0.250000E-02
     1          6     2     2  0.150000E-01  0.150000E-01  0.250000E-02
     1          6     2     2  0.150000E-01  0.150000E-01  0.250000E-02
     1          6     2     2  0.150000E-01  0.150000E-01  0.250000E-02
     1          6     2     2  0.150000E-01  0.150000E-01  0.250000E-02
     1          6     2     2  0.150000E-01  0.150000E-01  0.250000E-02
     1          6     2     2  0.150000E-01  0.150000E-01  0.250000E-02
     1          6     2     2  0.150000E-01  0.150000E-01  0.250000E-02
     1          6     2     2  0.150000E-01  0.150000E-01  0.250000E-02
     1          6     2     2  0.150000E-01  0.150000E-01  0.250000E-02
     1          6     2     2  0.150000E-01  0.150000E-01  0.250000E-02
     1          6     2     2  0.150000E-01  0.150000E-01  0.250000E-02
     1          6     2     2  0.150000E-01  0.150000E-01  0.250000E-02
     1          6     2     2  0.150000E-01  0.150000E-01  0.250000E-02
     1          6     2     2  0.150000E-01  0.150000E-01  0.250000E-02
     1          6     2     2  0.150000E-01  0.150000E-01  0.250000E-02
     1          6     2     2  0.150000E-01  0.150000E-01  0.250000E-02
     1          6     2     2  0.150000E-01  0.150000E-01  0.250000E-02
     1          6     2     2  0.150000E-01  0.150000E-01  0.250000E-02
     1          6     2     2  0.150000E-01  0.150000E-01  0.250000E-02
     1          6     2     2  0.150000E-01  0.150000E-01  0.250000E-02
     1          6     2     2  0.150000E-01  0.150000E-01  0.250000E-02
     1          6     2     2  0.150000E-01  0.150000E-01  0.250000E-02
     1          6     2     2  0.150000E-01  0.150000E-01  0.250000E-02
     1          6     2     2  0.150000E-01  0.150000E-01  0.250000E-02
     1          6     2     2  0.150000E-01  0.150000E-01  0.250000E-02
     1          6     2     2  0.150000E-01  0.150000E-01  0.250000E-02
     1          6     2     2  0.150000E-01  0.150000E-01  0.250000E-02
     1          6     2     2  0.150000E-01  0.150000E-01  0.250000E-02
     1          6     2     2  0.150000E-01  0.150000E-01  0.250000E-02
     1          6     2     2  0.150000E-01  0.150000E-01  0.250000E-02
     1          6     2     2  0.150000E-01  0.150000E-01  0.250000E-02
     1          6     2     2  0.150000E-01  0.150000E-01  0.250000E-02
     1          6     2     2  0.150000E-01  0.150000E-01  0.250000E-02
     1          6     2     2  0.150000E-01  0.150000E-01  0.250000E-02
     1          6     2     2  0.150000E-01  0.150000E-01  0.250000E-02
     1          6     2     2  0.150000E-01  0.150000E-01  0.250000E-02
     1          6     2     2  0.150000E-01  0.150000E-01  0.250000E-02
     1          6     2     2  0.150000E-01  0.150000E-01  0.250000E-02
     1          6     2     2  0.150000E-01  0.150000E-01  0.250000E-02
     1          6     2     2  0.150000E-01  0.150000E-01  0.250000E-02
     1          6     2     2  0.150000E-01  0.150000E-01  0.250000E-02
     1          6     2     2  0.150000E-01  0.150000E-01  0.250000E-02
     1          6     2     2  0.150000E-01  0.150000E-01  0.250000E-02
     1          6     2     2  0.150000E-01  0.150000E-01  0.250000E-02
     1          6     2     2  0.150000E-01  0.150000E-01  0.250000E-02
     1          6     2     2  0.150000E-01  0.150000E-01  0.250000E-02
     1          6     2     2  0.150000E-01  0.150000E-01  0.250000E-02
     1          6     2     2  0.150000E-01  0.150000E-01  0.250000E-02
     1          6     2     2  0.150000E-01  0.150000E-01  0.250000E-02
     1          6     2     2  0.150000E-01  0.150000E-01  0.250000E-02
     1          6     2     2  0.150000E-01  0.150000E-01  0.250000E-02
     1          6     2     2  0.150000E-01  0.150000E-01  0.250000E-02
     1          6     2     2  0.150000E-01  0.150000E-01  0.250000E-02
     1          6     2     2  0.150000E-01  0.150000E-01  0.250000E-02
     1          6     2     2  0.150000E-01  0.150000E-01  0.250000E-02
     1          6     2     2  0.150000E-01  0.150000E-01  0.250000E-02
     1          6     2     2  0.150000E-01  0.150000E-01  0.250000E-02
     1          6     2     2  0.150000E-01  0.150000E-01  0.250000E-02
     1          6     2     2  0.150000E-01  0.150000E-01  0.250000E-02
     1          6     2     2  0.150000E-01  0.150000E-01  0.250000E-02
     1          6     2     2  0.150000E-01  0.150000E-01  0.250000E-02
     1          6     2     2  0.150000E-01  0.150000E-01  0.250000E-02
     1          6     2     2  0.150000E-01  0.150000E-01  0.250000E-02
     1          6     2     2  0.150000E-01  0.150000E-01  0.250000E-02
     1          6     2     2  0.150000E-01  0.150000E-01  0.250000E-02
     1          6     2     2  0.150000E-01  0.150000E-01  0.250000E-02
     1          6     2     2  0.150000E-01  0.150000E-01  0.250000E-02
     1          6     2     2  0.150000E-01  0.150000E-01  0.250000E-02
     1          6     2     2  0.150000E-01  0.150000E-01  0.250000E-02
     1          6     2     2  0.150000E-01  0.150000E-01  0.250000E-02
     1          6     2     2  0.150000E-01  0.150000E-01  0.250000E-02
     1          6     2     2  0.150000E-01  0.150000E-01  0.250000E-02
     1          6     2     2  0.150000E-01  0.150000E-01  0.250000E-02
     1          6     2     2  0.150000E-01  0.150000E-01  0.250000E-02
     1          6     2     2  0.150000E-01  0.150000E-01  0.250000E-02
     1          6     2     2  0.150000E-01  0.150000E-01  0.250000E-02
     1          6     2     2  0.150000E-01  0.150000E-01  0.250000E-02
     1          6     2     2  0.150000E-01  0.150000E-01  0.250000E-02
     1          6     2     2  0.150000E-01  0.150000E-01  0.250000E-02
     1          6     2     2  0.150000E-01  0.150000E-01  0.250000E-02
     1          6     2     2  0.150000E-01  0.150000E-01  0.250000E-02
     1          6     2     2  0.150000E-01  0.150000E-01  0.250000E-02
     1          6     2     2  0.150000E-01  0.150000E-01  0.250000E-02
     1          6     2     2  0.150000E-01  0.150000E-01  0.250000E-02
     1          6     2     2  0.150000E-01  0.150000E-01  0.250000E-02
     1          7     1     2  0.175000E-01  0.175000E-01  0.250000E-02
     1          7     2     2  0.175000E-01  0.175000E-01  0.250000E-02
     1          7     2     2  0.175000E-01  0.175000E-01  0.250000E-02
     1          7     2     2  0.175000E-01  0.175000E-01  0.250000E-02
     1          7     2     2  0.175000E-01  0.175000E-01  0.250000E-02
     1          7     2     2  0.175000E-01  0.175000E-01  0.250000E-02
     1          7     2     2  0.175000E-01  0.175000E-01  0.250000E-02
     1          7     2     2  0.175000E-01  0.175000E-01  0.250000E-02
     1          7     2     2  0.175000E-01  0.175000E-01  0.250000E-02
     1          7     2     2  0.175000E-01  0.175000E-01  0.250000E-02
     1          7     2     2  0.175000E-01  0.175000E-01  0.250000E-02
     1          7     2     2  0.175000E-01  0.175000E-01  0.250000E-02
