SUMMARY OF JOB INFORMATION
  STEP      INC     ATT  ITRS     TOT TIME     STEP TIME      INC TIME
     1          1     1     2  0.250000E-02  0.250000E-02  0.250000E-02
     1          1     2     2  0.250000E-02  0.250000E-02  0.250000E-02
     1          1     2     2  0.250000E-02  0.250000E-02  0.250000E-02
     1          1     2     2  0.250000E-02  0.250000E-02  0.250000E-02
     1          1     2     2  0.250000E-02  0.250000E-02  0.250000E-02
     1          1     2     2  0.250000E-02  0.250000E-02  0.250000E-02
     1          1     2     2  0.250000E-02  0.250000E-02  0.250000E-02
     1          1     2     2  0.250000E-02  0.250000E-02  0.250000E-02
     1          1     2     2  0.250000E-02  0.250000E-02  0.250000E-02
     1          1     2     2  0.250000E-02  0.250000E-02  0.250000E-02
     1          1     2     2  0.250000E-02  0.250000E-02  0.250000E-02
     1          1     2     2  0.250000E-02  0.250000E-02  0.250000E-02
     1          1     2     2  0.250000E-02  0.250000E-02  0.250000E-02
     1          1     2     2  0.250000E-02  0.250000E-02  0.250000E-02
     1          1     2     2  0.250000E-02  0.250000E-02  0.250000E-02
     1          1     2     2  0.250000E-02  0.250000E-02  0.250000E-02
     1          1     2     2  0.250000E-02  0.250000E-02  0.250000E-02
     1          1     2     2  0.250000E-02  0.250000E-02  0.250000E-02
     1          1     2     2  0.250000E-02  0.250000E-02  0.250000E-02
     1          1     2     2  0.250000E-02  0.250000E-02  0.250000E-02
     1          1     2     2  0.250000E-02  0.250000E-02  0.250000E-02
     1          1     2     2  0.250000E-02  0.250000E-02  0.250000E-02
     1          1     2     2  0.250000E-02  0.250000E-02  0.250000E-02
     1          1     2     2  0.250000E-02  0.250000E-02  0.250000E-02
     1          1     2     2  0.250000E-02  0.250000E-02  0.250000E-02
     1          1     2     2  0.250000E-02  0.250000E-02  0.250000E-02
     1          1     2     2  0.250000E-02  0.250000E-02  0.250000E-02
     1          1     2     2  0.250000E-02  0.250000E-02  0.250000E-02
     1          1     2     2  0.250000E-02  0.250000E-02  0.250000E-02
     1          1     2     2  0.250000E-02  0.250000E-02  0.250000E-02
     1          1     2     2  0.250000E-02  0.250000E-02  0.250000E-02
     1          1     2     2  0.250000E-02  0.250000E-02  0.250000E-02
     1          1     2     2  0.250000E-02  0.250000E-02  0.250000E-02
     1          1     2     2  0.250000E-02  0.250000E-02  0.250000E-02
     1          1     2     2  0.250000E-02  0.250000E-02  0.250000E-02
     1          1     2     2  0.250000E-02  0.250000E-02  0.250000E-02
     1          1     2     2  0.250000E-02  0.250000E-02  0.250000E-02
     1          1     2     2  0.250000E-02  0.250000E-02  0.250000E-02
     1          1     2     2  0.250000E-02  0.250000E-02  0.250000E-02
     1          1     2     2  0.250000E-02  0.250000E-02  0.250000E-02
     1          1     2     2  0.250000E-02  0.250000E-02  0.250000E-02
     1          1     2     2  0.250000E-02  0.250000E-02  0.250000E-02
     1          1     2     2  0.250000E-02  0.250000E-02  0.250000E-02
     1          1     2     2  0.250000E-02  0.250000E-02  0.250000E-02
     1          1     2     2  0.250000E-02  0.250000E-02  0.250000E-02
     1          1     2     2  0.250000E-02  0.250000E-02  0.250000E-02
     1          1     2     2  0.250000E-02  0.250000E-02  0.250000E-02
     1          1     2     2  0.250000E-02  0.250000E-02  0.250000E-02
     1          1     2     2  0.250000E-02  0.250000E-02  0.250000E-02
     1          1     2     2  0.250000E-02  0.250000E-02  0.250000E-02
     1          1     2     2  0.250000E-02  0.250000E-02  0.250000E-02
     1          1     2     2  0.250000E-02  0.250000E-02  0.250000E-02
     1          1     2     2  0.250000E-02  0.250000E-02  0.250000E-02
     1          1     2     2  0.250000E-02  0.250000E-02  0.250000E-02
     1          1     2     2  0.250000E-02  0.250000E-02  0.250000E-02
     1          1     2     2  0.250000E-02  0.250000E-02  0.250000E-02
     1          1     2     2  0.250000E-02  0.250000E-02  0.250000E-02
     1          1     2     2  0.250000E-02  0.250000E-02  0.250000E-02
     1          1     2     2  0.250000E-02  0.250000E-02  0.250000E-02
     1          1     2     2  0.250000E-02  0.250000E-02  0.250000E-02
     1          1     2     2  0.250000E-02  0.250000E-02  0.250000E-02
     1          1     2     2  0.250000E-02  0.250000E-02  0.250000E-02
     1          1     2     2  0.250000E-02  0.250000E-02  0.250000E-02
     1          2     1     2  0.500000E-02  0.500000E-02  0.250000E-02
     1          2     2     2  0.500000E-02  0.500000E-02  0.250000E-02
     1          2     2     2  0.500000E-02  0.500000E-02  0.250000E-02
     1          2     2     2  0.500000E-02  0.500000E-02  0.250000E-02
     1          2     2     2  0.500000E-02  0.500000E-02  0.250000E-02
     1          2     2     2  0.500000E-02  0.500000E-02  0.250000E-02
     1          2     2     2  0.500000E-02  0.500000E-02  0.250000E-02
     1          2     2     2  0.500000E-02  0.500000E-02  0.250000E-02
     1          2     2     2  0.500000E-02  0.500000E-02  0.250000E-02
     1          2     2     2  0.500000E-02  0.500000E-02  0.250000E-02
     1          2     2     2  0.500000E-02  0.500000E-02  0.250000E-02
     1          2     2     2  0.500000E-02  0.500000E-02  0.250000E-02
     1          2     2     2  0.500000E-02  0.500000E-02  0.250000E-02
     1          2     2     2  0.500000E-02  0.500000E-02  0.250000E-02
     1          2     2     2  0.500000E-02  0.500000E-02  0.250000E-02
     1          2     2     2  0.500000E-02  0.500000E-02  0.250000E-02
     1          2     2     2  0.500000E-02  0.500000E-02  0.250000E-02
     1          2     2     2  0.500000E-02  0.500000E-02  0.250000E-02
     1          2     2     2  0.500000E-02  0.500000E-02  0.250000E-02
     1          2     2     2  0.500000E-02  0.500000E-02  0.250000E-02
     1          2     2     2  0.500000E-02  0.500000E-02  0.250000E-02
     1          2     2     2  0.500000E-02  0.500000E-02  0.250000E-02
     1          2     2     2  0.500000E-02  0.500000E-02  0.250000E-02
     1          2     2     2  0.500000E-02  0.500000E-02  0.250000E-02
     1          2     2     2  0.500000E-02  0.500000E-02  0.250000E-02
     1          2     2     2  0.500000E-02  0.500000E-02  0.250000E-02
     1          3     1     2  0.750000E-02  0.750000E-02  0.250000E-02
     1          3     2     2  0.750000E-02  0.750000E-02  0.250000E-02
     1          3     2     2  0.750000E-02  0.750000E-02  0.250000E-02
     1          3     2     2  0.750000E-02  0.750000E-02  0.250000E-02
     1          4     1     2  0.100000E-01  0.100000E-01  0.250000E-02
     1          4     2     2  0.100000E-01  0.100000E-01  0.250000E-02
     1          4     2     2  0.100000E-01  0.100000E-01  0.250000E-02
     1          4     2     2  0.100000E-01  0.100000E-01  0.250000E-02
     1          4     2     2  0.100000E-01  0.100000E-01  0.250000E-02
     1          5     1     2  0.125000E-01  0.125000E-01  0.250000E-02
     1          5     2     2  0.125000E-01  0.125000E-01  0.250000E-02
     1          6     1     2  0.150000E-01  0.150000E-01  0.250000E-02
     1          6     2     2  0.150000E-01  0.150000E-01  0.250000E-02
     1          6     2     2  0.150000E-01  0.150000E-01  0.250000E-02
     1          7     1     2  0.175000E-01  0.175000E-01  0.250000E-02
     1          7     2     2  0.175000E-01  0.175000E-01  0.250000E-02
     1          7     2     2  0.175000E-01  0.175000E-01  0.250000E-02
     1          8     1     2  0.200000E-01  0.200000E-01  0.250000E-02
     1          8     2     2  0.200000E-01  0.200000E-01  0.250000E-02
     1          8     2     2  0.200000E-01  0.200000E-01  0.250000E-02
     1          8     2     2  0.200000E-01  0.200000E-01  0.250000E-02
     1          8     2     2  0.200000E-01  0.200000E-01  0.250000E-02
     1          8     2     2  0.200000E-01  0.200000E-01  0.250000E-02
     1          8     2     2  0.200000E-01  0.200000E-01  0.250000E-02
     1          8     2     2  0.200000E-01  0.200000E-01  0.250000E-02
     1          8     2     2  0.200000E-01  0.200000E-01  0.250000E-02
     1          8     2     2  0.200000E-01  0.200000E-01  0.250000E-02
     1          9     1     2  0.225000E-01  0.225000E-01  0.250000E-02
     1          9     2     2  0.225000E-01  0.225000E-01  0.250000E-02
     1          9     2     2  0.225000E-01  0.225000E-01  0.250000E-02
     1          9     2     2  0.225000E-01  0.225000E-01  0.250000E-02
     1          9     2     2  0.225000E-01  0.225000E-01  0.250000E-02
     1          9     2     2  0.225000E-01  0.225000E-01  0.250000E-02
     1          9     2     2  0.225000E-01  0.225000E-01  0.250000E-02
     1          9     2     2  0.225000E-01  0.225000E-01  0.250000E-02
     1          9     2     2  0.225000E-01  0.225000E-01  0.250000E-02
     1         10     1     2  0.250000E-01  0.250000E-01  0.250000E-02
     1         10     2     2  0.250000E-01  0.250000E-01  0.250000E-02
     1         10     2     2  0.250000E-01  0.250000E-01  0.250000E-02
     1         10     2     2  0.250000E-01  0.250000E-01  0.250000E-02
     1         10     2     2  0.250000E-01  0.250000E-01  0.250000E-02
     1         10     2     2  0.250000E-01  0.250000E-01  0.250000E-02
     1         10     2     2  0.250000E-01  0.250000E-01  0.250000E-02
     1         10     2     2  0.250000E-01  0.250000E-01  0.250000E-02
     1         10     2     2  0.250000E-01  0.250000E-01  0.250000E-02
     1         10     2     2  0.250000E-01  0.250000E-01  0.250000E-02
     1         10     2     2  0.250000E-01  0.250000E-01  0.250000E-02
     1         10     2     2  0.250000E-01  0.250000E-01  0.250000E-02
     1         10     2     2  0.250000E-01  0.250000E-01  0.250000E-02
     1         10     2     2  0.250000E-01  0.250000E-01  0.250000E-02
     1         10     2     2  0.250000E-01  0.250000E-01  0.250000E-02
     1         11     1     2  0.275000E-01  0.275000E-01  0.250000E-02
     1         11     2     2  0.275000E-01  0.275000E-01  0.250000E-02
     1         11     2     2  0.275000E-01  0.275000E-01  0.250000E-02
     1         11     2     2  0.275000E-01  0.275000E-01  0.250000E-02
     1         12     1     2  0.300000E-01  0.300000E-01  0.250000E-02
     1         12     2     2  0.300000E-01  0.300000E-01  0.250000E-02
     1         12     2     2  0.300000E-01  0.300000E-01  0.250000E-02
     1         13     1     2  0.325000E-01  0.325000E-01  0.250000E-02
     1         13     2     2  0.325000E-01  0.325000E-01  0.250000E-02
     1         14     1     2  0.350000E-01  0.350000E-01  0.250000E-02
     1         14     2     2  0.350000E-01  0.350000E-01  0.250000E-02
     1         14     2     2  0.350000E-01  0.350000E-01  0.250000E-02
     1         14     2     2  0.350000E-01  0.350000E-01  0.250000E-02
     1         14     2     2  0.350000E-01  0.350000E-01  0.250000E-02
     1         15     1     2  0.375000E-01  0.375000E-01  0.250000E-02
     1         15     2     2  0.375000E-01  0.375000E-01  0.250000E-02
     1         15     2     2  0.375000E-01  0.375000E-01  0.250000E-02
     1         16     1     2  0.400000E-01  0.400000E-01  0.250000E-02
     1         16     2     2  0.400000E-01  0.400000E-01  0.250000E-02
     1         16     2     2  0.400000E-01  0.400000E-01  0.250000E-02
     1         16     2     2  0.400000E-01  0.400000E-01  0.250000E-02
     1         17     1     2  0.425000E-01  0.425000E-01  0.250000E-02
     1         17     2     2  0.425000E-01  0.425000E-01  0.250000E-02
     1         17     2     2  0.425000E-01  0.425000E-01  0.250000E-02
     1         17     2     2  0.425000E-01  0.425000E-01  0.250000E-02
     1         17     2     2  0.425000E-01  0.425000E-01  0.250000E-02
     1         17     2     2  0.425000E-01  0.425000E-01  0.250000E-02
     1         18     1     2  0.450000E-01  0.450000E-01  0.250000E-02
     1         18     2     2  0.450000E-01  0.450000E-01  0.250000E-02
     1         18     2     2  0.450000E-01  0.450000E-01  0.250000E-02
     1         18     2     2  0.450000E-01  0.450000E-01  0.250000E-02
     1         19     1     2  0.475000E-01  0.475000E-01  0.250000E-02
     1         19     2     2  0.475000E-01  0.475000E-01  0.250000E-02
     1         19     2     2  0.475000E-01  0.475000E-01  0.250000E-02
     1         19     2     2  0.475000E-01  0.475000E-01  0.250000E-02
     1         19     2     2  0.475000E-01  0.475000E-01  0.250000E-02
     1         20     1     2  0.500000E-01  0.500000E-01  0.250000E-02
     1         20     2     2  0.500000E-01  0.500000E-01  0.250000E-02
     1         20     2     2  0.500000E-01  0.500000E-01  0.250000E-02
     1         20     2     2  0.500000E-01  0.500000E-01  0.250000E-02
     1         20     2     2  0.500000E-01  0.500000E-01  0.250000E-02
     1         20     2     2  0.500000E-01  0.500000E-01  0.250000E-02
     1         20     2     2  0.500000E-01  0.500000E-01  0.250000E-02
     1         20     2     2  0.500000E-01  0.500000E-01  0.250000E-02
     1         20     2     2  0.500000E-01  0.500000E-01  0.250000E-02
     1         21     1     2  0.525000E-01  0.525000E-01  0.250000E-02
     1         21     2     2  0.525000E-01  0.525000E-01  0.250000E-02
     1         21     2     2  0.525000E-01  0.525000E-01  0.250000E-02
     1         21     2     2  0.525000E-01  0.525000E-01  0.250000E-02
     1         21     2     2  0.525000E-01  0.525000E-01  0.250000E-02
     1         22     1     2  0.550000E-01  0.550000E-01  0.250000E-02
     1         22     2     2  0.550000E-01  0.550000E-01  0.250000E-02
     1         22     2     2  0.550000E-01  0.550000E-01  0.250000E-02
     1         23     1     2  0.575000E-01  0.575000E-01  0.250000E-02
     1         23     2     2  0.575000E-01  0.575000E-01  0.250000E-02
     1         23     2     2  0.575000E-01  0.575000E-01  0.250000E-02
     1         23     2     2  0.575000E-01  0.575000E-01  0.250000E-02
     1         23     2     2  0.575000E-01  0.575000E-01  0.250000E-02
     1         23     2     2  0.575000E-01  0.575000E-01  0.250000E-02
     1         23     2     2  0.575000E-01  0.575000E-01  0.250000E-02
     1         23     2     2  0.575000E-01  0.575000E-01  0.250000E-02
     1         23     2     2  0.575000E-01  0.575000E-01  0.250000E-02
     1         23     2     2  0.575000E-01  0.575000E-01  0.250000E-02
     1         23     2     2  0.575000E-01  0.575000E-01  0.250000E-02
     1         23     2     2  0.575000E-01  0.575000E-01  0.250000E-02
     1         23     2     2  0.575000E-01  0.575000E-01  0.250000E-02
     1         23     2     2  0.575000E-01  0.575000E-01  0.250000E-02
     1         23     2     2  0.575000E-01  0.575000E-01  0.250000E-02
     1         23     2     2  0.575000E-01  0.575000E-01  0.250000E-02
     1         24     1     2  0.600000E-01  0.600000E-01  0.250000E-02
     1         24     2     2  0.600000E-01  0.600000E-01  0.250000E-02
     1         24     2     2  0.600000E-01  0.600000E-01  0.250000E-02
     1         24     2     2  0.600000E-01  0.600000E-01  0.250000E-02
     1         25     1     2  0.625000E-01  0.625000E-01  0.250000E-02
     1         25     2     2  0.625000E-01  0.625000E-01  0.250000E-02
     1         25     2     2  0.625000E-01  0.625000E-01  0.250000E-02
     1         25     2     2  0.625000E-01  0.625000E-01  0.250000E-02
     1         25     2     2  0.625000E-01  0.625000E-01  0.250000E-02
     1         26     1     2  0.650000E-01  0.650000E-01  0.250000E-02
     1         26     2     2  0.650000E-01  0.650000E-01  0.250000E-02
     1         26     2     2  0.650000E-01  0.650000E-01  0.250000E-02
     1         26     2     2  0.650000E-01  0.650000E-01  0.250000E-02
     1         26     2     2  0.650000E-01  0.650000E-01  0.250000E-02
     1         26     2     2  0.650000E-01  0.650000E-01  0.250000E-02
     1         27     1     2  0.675000E-01  0.675000E-01  0.250000E-02
     1         27     2     2  0.675000E-01  0.675000E-01  0.250000E-02
     1         27     2     2  0.675000E-01  0.675000E-01  0.250000E-02
     1         27     2     2  0.675000E-01  0.675000E-01  0.250000E-02
     1         27     2     2  0.675000E-01  0.675000E-01  0.250000E-02
     1         28     1     2  0.700000E-01  0.700000E-01  0.250000E-02
     1         28     2     2  0.700000E-01  0.700000E-01  0.250000E-02
     1         28     2     2  0.700000E-01  0.700000E-01  0.250000E-02
     1         28     2     2  0.700000E-01  0.700000E-01  0.250000E-02
     1         28     2     2  0.700000E-01  0.700000E-01  0.250000E-02
     1         29     1     2  0.725000E-01  0.725000E-01  0.250000E-02
     1         29     2     2  0.725000E-01  0.725000E-01  0.250000E-02
     1         29     2     2  0.725000E-01  0.725000E-01  0.250000E-02
     1         29     2     2  0.725000E-01  0.725000E-01  0.250000E-02
     1         29     2     2  0.725000E-01  0.725000E-01  0.250000E-02
     1         29     2     2  0.725000E-01  0.725000E-01  0.250000E-02
     1         29     2     2  0.725000E-01  0.725000E-01  0.250000E-02
     1         29     2     2  0.725000E-01  0.725000E-01  0.250000E-02
     1         29     2     2  0.725000E-01  0.725000E-01  0.250000E-02
     1         29     2     2  0.725000E-01  0.725000E-01  0.250000E-02
     1         29     2     2  0.725000E-01  0.725000E-01  0.250000E-02
     1         30     1     2  0.750000E-01  0.750000E-01  0.250000E-02
     1         30     2     2  0.750000E-01  0.750000E-01  0.250000E-02
     1         30     2     2  0.750000E-01  0.750000E-01  0.250000E-02
     1         30     2     2  0.750000E-01  0.750000E-01  0.250000E-02
     1         30     2     2  0.750000E-01  0.750000E-01  0.250000E-02
     1         30     2     2  0.750000E-01  0.750000E-01  0.250000E-02
     1         30     2     2  0.750000E-01  0.750000E-01  0.250000E-02
     1         30     2     2  0.750000E-01  0.750000E-01  0.250000E-02
     1         30     2     2  0.750000E-01  0.750000E-01  0.250000E-02
     1         31     1     2  0.775000E-01  0.775000E-01  0.250000E-02
     1         31     2     2  0.775000E-01  0.775000E-01  0.250000E-02
     1         31     2     2  0.775000E-01  0.775000E-01  0.250000E-02
     1         31     2     2  0.775000E-01  0.775000E-01  0.250000E-02
     1         31     2     2  0.775000E-01  0.775000E-01  0.250000E-02
     1         31     2     2  0.775000E-01  0.775000E-01  0.250000E-02
     1         32     1     2  0.800000E-01  0.800000E-01  0.250000E-02
     1         32     2     2  0.800000E-01  0.800000E-01  0.250000E-02
     1         32     2     2  0.800000E-01  0.800000E-01  0.250000E-02
     1         32     2     2  0.800000E-01  0.800000E-01  0.250000E-02
     1         32     2     2  0.800000E-01  0.800000E-01  0.250000E-02
     1         32     2     2  0.800000E-01  0.800000E-01  0.250000E-02
     1         32     2     2  0.800000E-01  0.800000E-01  0.250000E-02
     1         32     2     2  0.800000E-01  0.800000E-01  0.250000E-02
     1         32     2     2  0.800000E-01  0.800000E-01  0.250000E-02
     1         32     2     2  0.800000E-01  0.800000E-01  0.250000E-02
     1         32     2     2  0.800000E-01  0.800000E-01  0.250000E-02
     1         33     1     2  0.825000E-01  0.825000E-01  0.250000E-02
     1         33     2     2  0.825000E-01  0.825000E-01  0.250000E-02
     1         33     2     2  0.825000E-01  0.825000E-01  0.250000E-02
     1         33     2     2  0.825000E-01  0.825000E-01  0.250000E-02
     1         34     1     2  0.850000E-01  0.850000E-01  0.250000E-02
     1         34     2     2  0.850000E-01  0.850000E-01  0.250000E-02
     1         34     2     2  0.850000E-01  0.850000E-01  0.250000E-02
     1         34     2     2  0.850000E-01  0.850000E-01  0.250000E-02
     1         35     1     2  0.875000E-01  0.875000E-01  0.250000E-02
     1         35     2     2  0.875000E-01  0.875000E-01  0.250000E-02
     1         35     2     2  0.875000E-01  0.875000E-01  0.250000E-02
     1         35     2     2  0.875000E-01  0.875000E-01  0.250000E-02
     1         36     1     2  0.900000E-01  0.900000E-01  0.250000E-02
     1         36     2     2  0.900000E-01  0.900000E-01  0.250000E-02
     1         36     2     2  0.900000E-01  0.900000E-01  0.250000E-02
     1         36     2     2  0.900000E-01  0.900000E-01  0.250000E-02
     1         36     2     2  0.900000E-01  0.900000E-01  0.250000E-02
     1         37     1     2  0.925000E-01  0.925000E-01  0.250000E-02
     1         37     2     2  0.925000E-01  0.925000E-01  0.250000E-02
     1         37     2     2  0.925000E-01  0.925000E-01  0.250000E-02
     1         37     2     2  0.925000E-01  0.925000E-01  0.250000E-02
     1         38     1     2  0.950000E-01  0.950000E-01  0.250000E-02
     1         38     2     2  0.950000E-01  0.950000E-01  0.250000E-02
     1         38     2     2  0.950000E-01  0.950000E-01  0.250000E-02
     1         38     2     2  0.950000E-01  0.950000E-01  0.250000E-02
     1         38     2     2  0.950000E-01  0.950000E-01  0.250000E-02
     1         38     2     2  0.950000E-01  0.950000E-01  0.250000E-02
     1         38     2     2  0.950000E-01  0.950000E-01  0.250000E-02
     1         38     2     2  0.950000E-01  0.950000E-01  0.250000E-02
     1         39     1     2  0.975000E-01  0.975000E-01  0.250000E-02
     1         39     2     2  0.975000E-01  0.975000E-01  0.250000E-02
     1         39     2     2  0.975000E-01  0.975000E-01  0.250000E-02
     1         39     2     2  0.975000E-01  0.975000E-01  0.250000E-02
     1         39     2     2  0.975000E-01  0.975000E-01  0.250000E-02
     1         39     2     2  0.975000E-01  0.975000E-01  0.250000E-02
     1         39     2     2  0.975000E-01  0.975000E-01  0.250000E-02
     1         39     2     2  0.975000E-01  0.975000E-01  0.250000E-02
     1         39     2     2  0.975000E-01  0.975000E-01  0.250000E-02
     1         39     2     2  0.975000E-01  0.975000E-01  0.250000E-02
     1         40     1     2  0.100000E+00  0.100000E+00  0.250000E-02
     1         40     2     2  0.100000E+00  0.100000E+00  0.250000E-02
     1         40     2     2  0.100000E+00  0.100000E+00  0.250000E-02
     1         40     2     2  0.100000E+00  0.100000E+00  0.250000E-02
     1         40     2     2  0.100000E+00  0.100000E+00  0.250000E-02
     1         41     1     2  0.102500E+00  0.102500E+00  0.250000E-02
     1         41     2     2  0.102500E+00  0.102500E+00  0.250000E-02
     1         41     2     2  0.102500E+00  0.102500E+00  0.250000E-02
     1         41     2     2  0.102500E+00  0.102500E+00  0.250000E-02
     1         41     2     2  0.102500E+00  0.102500E+00  0.250000E-02
     1         41     2     2  0.102500E+00  0.102500E+00  0.250000E-02
     1         41     2     2  0.102500E+00  0.102500E+00  0.250000E-02
     1         41     2     2  0.102500E+00  0.102500E+00  0.250000E-02
     1         41     2     2  0.102500E+00  0.102500E+00  0.250000E-02
     1         42     1     2  0.105000E+00  0.105000E+00  0.250000E-02
     1         42     2     2  0.105000E+00  0.105000E+00  0.250000E-02
     1         42     2     2  0.105000E+00  0.105000E+00  0.250000E-02
     1         42     2     2  0.105000E+00  0.105000E+00  0.250000E-02
     1         42     2     2  0.105000E+00  0.105000E+00  0.250000E-02
     1         42     2     2  0.105000E+00  0.105000E+00  0.250000E-02
     1         42     2     2  0.105000E+00  0.105000E+00  0.250000E-02
     1         42     2     2  0.105000E+00  0.105000E+00  0.250000E-02
     1         43     1     2  0.107500E+00  0.107500E+00  0.250000E-02
     1         43     2     2  0.107500E+00  0.107500E+00  0.250000E-02
     1         43     2     2  0.107500E+00  0.107500E+00  0.250000E-02
     1         43     2     2  0.107500E+00  0.107500E+00  0.250000E-02
     1         43     2     2  0.107500E+00  0.107500E+00  0.250000E-02
     1         43     2     2  0.107500E+00  0.107500E+00  0.250000E-02
     1         43     2     2  0.107500E+00  0.107500E+00  0.250000E-02
     1         43     2     2  0.107500E+00  0.107500E+00  0.250000E-02
     1         43     2     2  0.107500E+00  0.107500E+00  0.250000E-02
     1         43     2     2  0.107500E+00  0.107500E+00  0.250000E-02
     1         44     1     2  0.110000E+00  0.110000E+00  0.250000E-02
     1         44     2     2  0.110000E+00  0.110000E+00  0.250000E-02
     1         44     2     2  0.110000E+00  0.110000E+00  0.250000E-02
     1         44     2     2  0.110000E+00  0.110000E+00  0.250000E-02
     1         45     1     2  0.112500E+00  0.112500E+00  0.250000E-02
     1         45     2     2  0.112500E+00  0.112500E+00  0.250000E-02
     1         45     2     2  0.112500E+00  0.112500E+00  0.250000E-02
     1         45     2     2  0.112500E+00  0.112500E+00  0.250000E-02
     1         46     1     2  0.115000E+00  0.115000E+00  0.250000E-02
     1         46     2     2  0.115000E+00  0.115000E+00  0.250000E-02
     1         46     2     2  0.115000E+00  0.115000E+00  0.250000E-02
     1         47     1     2  0.117500E+00  0.117500E+00  0.250000E-02
     1         47     2     2  0.117500E+00  0.117500E+00  0.250000E-02
     1         47     2     2  0.117500E+00  0.117500E+00  0.250000E-02
     1         47     2     2  0.117500E+00  0.117500E+00  0.250000E-02
     1         48     1     2  0.120000E+00  0.120000E+00  0.250000E-02
     1         48     2     2  0.120000E+00  0.120000E+00  0.250000E-02
     1         48     2     2  0.120000E+00  0.120000E+00  0.250000E-02
     1         48     2     2  0.120000E+00  0.120000E+00  0.250000E-02
     1         49     1     2  0.122500E+00  0.122500E+00  0.250000E-02
     1         49     2     2  0.122500E+00  0.122500E+00  0.250000E-02
     1         49     2     2  0.122500E+00  0.122500E+00  0.250000E-02
     1         49     2     2  0.122500E+00  0.122500E+00  0.250000E-02
     1         49     2     2  0.122500E+00  0.122500E+00  0.250000E-02
     1         49     2     2  0.122500E+00  0.122500E+00  0.250000E-02
     1         49     2     2  0.122500E+00  0.122500E+00  0.250000E-02
     1         49     2     2  0.122500E+00  0.122500E+00  0.250000E-02
     1         49     2     2  0.122500E+00  0.122500E+00  0.250000E-02
     1         49     2     2  0.122500E+00  0.122500E+00  0.250000E-02
     1         50     1     2  0.125000E+00  0.125000E+00  0.250000E-02
     1         50     2     2  0.125000E+00  0.125000E+00  0.250000E-02
     1         50     2     2  0.125000E+00  0.125000E+00  0.250000E-02
     1         50     2     2  0.125000E+00  0.125000E+00  0.250000E-02
     1         50     2     2  0.125000E+00  0.125000E+00  0.250000E-02
     1         51     1     2  0.127500E+00  0.127500E+00  0.250000E-02
     1         51     2     2  0.127500E+00  0.127500E+00  0.250000E-02
     1         51     2     2  0.127500E+00  0.127500E+00  0.250000E-02
     1         51     2     2  0.127500E+00  0.127500E+00  0.250000E-02
     1         51     2     2  0.127500E+00  0.127500E+00  0.250000E-02
     1         51     2     2  0.127500E+00  0.127500E+00  0.250000E-02
     1         51     2     2  0.127500E+00  0.127500E+00  0.250000E-02
     1         51     2     2  0.127500E+00  0.127500E+00  0.250000E-02
     1         51     2     2  0.127500E+00  0.127500E+00  0.250000E-02
     1         51     2     2  0.127500E+00  0.127500E+00  0.250000E-02
     1         51     2     2  0.127500E+00  0.127500E+00  0.250000E-02
     1         51     2     2  0.127500E+00  0.127500E+00  0.250000E-02
     1         51     2     2  0.127500E+00  0.127500E+00  0.250000E-02
     1         52     1     2  0.130000E+00  0.130000E+00  0.250000E-02
     1         52     2     2  0.130000E+00  0.130000E+00  0.250000E-02
     1         52     2     2  0.130000E+00  0.130000E+00  0.250000E-02
     1         52     2     2  0.130000E+00  0.130000E+00  0.250000E-02
     1         52     2     2  0.130000E+00  0.130000E+00  0.250000E-02
     1         52     2     2  0.130000E+00  0.130000E+00  0.250000E-02
     1         52     2     2  0.130000E+00  0.130000E+00  0.250000E-02
     1         52     2     2  0.130000E+00  0.130000E+00  0.250000E-02
     1         52     2     2  0.130000E+00  0.130000E+00  0.250000E-02
     1         52     2     2  0.130000E+00  0.130000E+00  0.250000E-02
     1         52     2     2  0.130000E+00  0.130000E+00  0.250000E-02
     1         53     1     2  0.132500E+00  0.132500E+00  0.250000E-02
     1         53     2     2  0.132500E+00  0.132500E+00  0.250000E-02
     1         53     2     2  0.132500E+00  0.132500E+00  0.250000E-02
     1         53     2     2  0.132500E+00  0.132500E+00  0.250000E-02
     1         54     1     2  0.135000E+00  0.135000E+00  0.250000E-02
     1         54     2     2  0.135000E+00  0.135000E+00  0.250000E-02
     1         54     2     2  0.135000E+00  0.135000E+00  0.250000E-02
     1         54     2     2  0.135000E+00  0.135000E+00  0.250000E-02
     1         55     1     2  0.137500E+00  0.137500E+00  0.250000E-02
     1         55     2     2  0.137500E+00  0.137500E+00  0.250000E-02
     1         55     2     2  0.137500E+00  0.137500E+00  0.250000E-02
     1         55     2     2  0.137500E+00  0.137500E+00  0.250000E-02
     1         55     2     2  0.137500E+00  0.137500E+00  0.250000E-02
     1         56     1     2  0.140000E+00  0.140000E+00  0.250000E-02
     1         56     2     2  0.140000E+00  0.140000E+00  0.250000E-02
     1         56     2     2  0.140000E+00  0.140000E+00  0.250000E-02
     1         56     2     2  0.140000E+00  0.140000E+00  0.250000E-02
     1         56     2     2  0.140000E+00  0.140000E+00  0.250000E-02
     1         57     1     2  0.142500E+00  0.142500E+00  0.250000E-02
     1         57     2     2  0.142500E+00  0.142500E+00  0.250000E-02
     1         57     2     2  0.142500E+00  0.142500E+00  0.250000E-02
     1         57     2     2  0.142500E+00  0.142500E+00  0.250000E-02
     1         57     2     2  0.142500E+00  0.142500E+00  0.250000E-02
     1         57     2     2  0.142500E+00  0.142500E+00  0.250000E-02
     1         57     2     2  0.142500E+00  0.142500E+00  0.250000E-02
     1         57     2     2  0.142500E+00  0.142500E+00  0.250000E-02
     1         58     1     2  0.145000E+00  0.145000E+00  0.250000E-02
     1         58     2     2  0.145000E+00  0.145000E+00  0.250000E-02
     1         58     2     2  0.145000E+00  0.145000E+00  0.250000E-02
     1         58     2     2  0.145000E+00  0.145000E+00  0.250000E-02
     1         58     2     2  0.145000E+00  0.145000E+00  0.250000E-02
     1         58     2     2  0.145000E+00  0.145000E+00  0.250000E-02
     1         58     2     2  0.145000E+00  0.145000E+00  0.250000E-02
     1         58     2     2  0.145000E+00  0.145000E+00  0.250000E-02
     1         58     2     2  0.145000E+00  0.145000E+00  0.250000E-02
     1         59     1     2  0.147500E+00  0.147500E+00  0.250000E-02
     1         59     2     2  0.147500E+00  0.147500E+00  0.250000E-02
     1         59     2     2  0.147500E+00  0.147500E+00  0.250000E-02
     1         59     2     2  0.147500E+00  0.147500E+00  0.250000E-02
     1         59     2     2  0.147500E+00  0.147500E+00  0.250000E-02
     1         60     1     2  0.150000E+00  0.150000E+00  0.250000E-02
     1         60     2     2  0.150000E+00  0.150000E+00  0.250000E-02
     1         60     2     2  0.150000E+00  0.150000E+00  0.250000E-02
     1         60     2     2  0.150000E+00  0.150000E+00  0.250000E-02
     1         61     1     2  0.152500E+00  0.152500E+00  0.250000E-02
     1         61     2     2  0.152500E+00  0.152500E+00  0.250000E-02
     1         61     2     2  0.152500E+00  0.152500E+00  0.250000E-02
     1         61     2     2  0.152500E+00  0.152500E+00  0.250000E-02
     1         61     2     2  0.152500E+00  0.152500E+00  0.250000E-02
     1         62     1     2  0.155000E+00  0.155000E+00  0.250000E-02
     1         62     2     2  0.155000E+00  0.155000E+00  0.250000E-02
     1         62     2     2  0.155000E+00  0.155000E+00  0.250000E-02
     1         62     2     2  0.155000E+00  0.155000E+00  0.250000E-02
     1         62     2     2  0.155000E+00  0.155000E+00  0.250000E-02
     1         63     1     2  0.157500E+00  0.157500E+00  0.250000E-02
     1         63     2     2  0.157500E+00  0.157500E+00  0.250000E-02
     1         63     2     2  0.157500E+00  0.157500E+00  0.250000E-02
     1         63     2     2  0.157500E+00  0.157500E+00  0.250000E-02
     1         64     1     2  0.160000E+00  0.160000E+00  0.250000E-02
     1         64     2     2  0.160000E+00  0.160000E+00  0.250000E-02
     1         64     2     2  0.160000E+00  0.160000E+00  0.250000E-02
     1         64     2     2  0.160000E+00  0.160000E+00  0.250000E-02
     1         64     2     2  0.160000E+00  0.160000E+00  0.250000E-02
     1         65     1     2  0.162500E+00  0.162500E+00  0.250000E-02
     1         65     2     2  0.162500E+00  0.162500E+00  0.250000E-02
     1         65     2     2  0.162500E+00  0.162500E+00  0.250000E-02
     1         65     2     2  0.162500E+00  0.162500E+00  0.250000E-02
     1         65     2     2  0.162500E+00  0.162500E+00  0.250000E-02
     1         65     2     2  0.162500E+00  0.162500E+00  0.250000E-02
     1         65     2     2  0.162500E+00  0.162500E+00  0.250000E-02
     1         65     2     2  0.162500E+00  0.162500E+00  0.250000E-02
     1         65     2     2  0.162500E+00  0.162500E+00  0.250000E-02
     1         65     2     2  0.162500E+00  0.162500E+00  0.250000E-02
     1         65     2     2  0.162500E+00  0.162500E+00  0.250000E-02
     1         65     2     2  0.162500E+00  0.162500E+00  0.250000E-02
     1         66     1     2  0.165000E+00  0.165000E+00  0.250000E-02
     1         66     2     2  0.165000E+00  0.165000E+00  0.250000E-02
     1         66     2     2  0.165000E+00  0.165000E+00  0.250000E-02
     1         67     1     2  0.167500E+00  0.167500E+00  0.250000E-02
     1         67     2     2  0.167500E+00  0.167500E+00  0.250000E-02
     1         67     2     2  0.167500E+00  0.167500E+00  0.250000E-02
     1         67     2     2  0.167500E+00  0.167500E+00  0.250000E-02
     1         67     2     2  0.167500E+00  0.167500E+00  0.250000E-02
     1         67     2     2  0.167500E+00  0.167500E+00  0.250000E-02
     1         68     1     2  0.170000E+00  0.170000E+00  0.250000E-02
     1         68     2     2  0.170000E+00  0.170000E+00  0.250000E-02
     1         68     2     2  0.170000E+00  0.170000E+00  0.250000E-02
     1         68     2     2  0.170000E+00  0.170000E+00  0.250000E-02
     1         68     2     2  0.170000E+00  0.170000E+00  0.250000E-02
     1         68     2     2  0.170000E+00  0.170000E+00  0.250000E-02
     1         68     2     2  0.170000E+00  0.170000E+00  0.250000E-02
     1         68     2     2  0.170000E+00  0.170000E+00  0.250000E-02
     1         68     2     2  0.170000E+00  0.170000E+00  0.250000E-02
     1         68     2     2  0.170000E+00  0.170000E+00  0.250000E-02
     1         68     2     2  0.170000E+00  0.170000E+00  0.250000E-02
     1         68     2     2  0.170000E+00  0.170000E+00  0.250000E-02
     1         68     2     2  0.170000E+00  0.170000E+00  0.250000E-02
     1         68     2     2  0.170000E+00  0.170000E+00  0.250000E-02
     1         68     2     2  0.170000E+00  0.170000E+00  0.250000E-02
     1         69     1     2  0.172500E+00  0.172500E+00  0.250000E-02
     1         69     2     2  0.172500E+00  0.172500E+00  0.250000E-02
     1         69     2     2  0.172500E+00  0.172500E+00  0.250000E-02
     1         69     2     2  0.172500E+00  0.172500E+00  0.250000E-02
     1         70     1     2  0.175000E+00  0.175000E+00  0.250000E-02
     1         70     2     2  0.175000E+00  0.175000E+00  0.250000E-02
     1         70     2     2  0.175000E+00  0.175000E+00  0.250000E-02
     1         70     2     2  0.175000E+00  0.175000E+00  0.250000E-02
     1         70     2     2  0.175000E+00  0.175000E+00  0.250000E-02
     1         70     2     2  0.175000E+00  0.175000E+00  0.250000E-02
     1         70     2     2  0.175000E+00  0.175000E+00  0.250000E-02
     1         70     2     2  0.175000E+00  0.175000E+00  0.250000E-02
     1         71     1     2  0.177500E+00  0.177500E+00  0.250000E-02
     1         71     2     2  0.177500E+00  0.177500E+00  0.250000E-02
     1         71     2     2  0.177500E+00  0.177500E+00  0.250000E-02
     1         71     2     2  0.177500E+00  0.177500E+00  0.250000E-02
     1         72     1     2  0.180000E+00  0.180000E+00  0.250000E-02
     1         72     2     2  0.180000E+00  0.180000E+00  0.250000E-02
     1         72     2     2  0.180000E+00  0.180000E+00  0.250000E-02
     1         72     2     2  0.180000E+00  0.180000E+00  0.250000E-02
     1         72     2     2  0.180000E+00  0.180000E+00  0.250000E-02
     1         72     2     2  0.180000E+00  0.180000E+00  0.250000E-02
     1         72     2     2  0.180000E+00  0.180000E+00  0.250000E-02
     1         72     2     2  0.180000E+00  0.180000E+00  0.250000E-02
     1         72     2     2  0.180000E+00  0.180000E+00  0.250000E-02
     1         72     2     2  0.180000E+00  0.180000E+00  0.250000E-02
     1         72     2     2  0.180000E+00  0.180000E+00  0.250000E-02
     1         72     2     2  0.180000E+00  0.180000E+00  0.250000E-02
     1         72     2     2  0.180000E+00  0.180000E+00  0.250000E-02
     1         72     2     2  0.180000E+00  0.180000E+00  0.250000E-02
     1         72     2     2  0.180000E+00  0.180000E+00  0.250000E-02
     1         73     1     2  0.182500E+00  0.182500E+00  0.250000E-02
     1         73     2     2  0.182500E+00  0.182500E+00  0.250000E-02
     1         73     2     2  0.182500E+00  0.182500E+00  0.250000E-02
     1         73     2     2  0.182500E+00  0.182500E+00  0.250000E-02
     1         73     2     2  0.182500E+00  0.182500E+00  0.250000E-02
     1         73     2     2  0.182500E+00  0.182500E+00  0.250000E-02
     1         73     2     2  0.182500E+00  0.182500E+00  0.250000E-02
     1         73     2     2  0.182500E+00  0.182500E+00  0.250000E-02
     1         73     2     2  0.182500E+00  0.182500E+00  0.250000E-02
     1         73     2     2  0.182500E+00  0.182500E+00  0.250000E-02
     1         74     1     2  0.185000E+00  0.185000E+00  0.250000E-02
     1         74     2     2  0.185000E+00  0.185000E+00  0.250000E-02
     1         74     2     2  0.185000E+00  0.185000E+00  0.250000E-02
     1         74     2     2  0.185000E+00  0.185000E+00  0.250000E-02
     1         74     2     2  0.185000E+00  0.185000E+00  0.250000E-02
     1         74     2     2  0.185000E+00  0.185000E+00  0.250000E-02
     1         74     2     2  0.185000E+00  0.185000E+00  0.250000E-02
     1         75     1     2  0.187500E+00  0.187500E+00  0.250000E-02
     1         75     2     2  0.187500E+00  0.187500E+00  0.250000E-02
     1         75     2     2  0.187500E+00  0.187500E+00  0.250000E-02
     1         76     1     2  0.190000E+00  0.190000E+00  0.250000E-02
     1         76     2     2  0.190000E+00  0.190000E+00  0.250000E-02
     1         76     2     2  0.190000E+00  0.190000E+00  0.250000E-02
     1         77     1     2  0.192500E+00  0.192500E+00  0.250000E-02
     1         77     2     2  0.192500E+00  0.192500E+00  0.250000E-02
     1         77     2     2  0.192500E+00  0.192500E+00  0.250000E-02
     1         78     1     2  0.195000E+00  0.195000E+00  0.250000E-02
     1         78     2     2  0.195000E+00  0.195000E+00  0.250000E-02
     1         78     2     2  0.195000E+00  0.195000E+00  0.250000E-02
     1         78     2     2  0.195000E+00  0.195000E+00  0.250000E-02
     1         79     1     2  0.197500E+00  0.197500E+00  0.250000E-02
     1         79     2     2  0.197500E+00  0.197500E+00  0.250000E-02
     1         79     2     2  0.197500E+00  0.197500E+00  0.250000E-02
     1         79     2     2  0.197500E+00  0.197500E+00  0.250000E-02
     1         80     1     2  0.200000E+00  0.200000E+00  0.250000E-02
     1         80     2     2  0.200000E+00  0.200000E+00  0.250000E-02
     1         80     2     2  0.200000E+00  0.200000E+00  0.250000E-02
     1         80     2     2  0.200000E+00  0.200000E+00  0.250000E-02
     1         80     2     2  0.200000E+00  0.200000E+00  0.250000E-02
     1         80     2     2  0.200000E+00  0.200000E+00  0.250000E-02
     1         81     1     2  0.202500E+00  0.202500E+00  0.250000E-02
     1         81     2     2  0.202500E+00  0.202500E+00  0.250000E-02
     1         81     2     2  0.202500E+00  0.202500E+00  0.250000E-02
     1         81     2     2  0.202500E+00  0.202500E+00  0.250000E-02
     1         81     2     2  0.202500E+00  0.202500E+00  0.250000E-02
     1         81     2     2  0.202500E+00  0.202500E+00  0.250000E-02
     1         81     2     2  0.202500E+00  0.202500E+00  0.250000E-02
     1         81     2     2  0.202500E+00  0.202500E+00  0.250000E-02
     1         81     2     2  0.202500E+00  0.202500E+00  0.250000E-02
     1         82     1     2  0.205000E+00  0.205000E+00  0.250000E-02
     1         82     2     2  0.205000E+00  0.205000E+00  0.250000E-02
     1         82     2     2  0.205000E+00  0.205000E+00  0.250000E-02
     1         83     1     2  0.207500E+00  0.207500E+00  0.250000E-02
     1         83     2     2  0.207500E+00  0.207500E+00  0.250000E-02
     1         83     2     2  0.207500E+00  0.207500E+00  0.250000E-02
     1         83     2     2  0.207500E+00  0.207500E+00  0.250000E-02
     1         84     1     2  0.210000E+00  0.210000E+00  0.250000E-02
     1         84     2     2  0.210000E+00  0.210000E+00  0.250000E-02
     1         84     2     2  0.210000E+00  0.210000E+00  0.250000E-02
     1         84     2     2  0.210000E+00  0.210000E+00  0.250000E-02
     1         84     2     2  0.210000E+00  0.210000E+00  0.250000E-02
     1         84     2     2  0.210000E+00  0.210000E+00  0.250000E-02
     1         84     2     2  0.210000E+00  0.210000E+00  0.250000E-02
     1         84     2     2  0.210000E+00  0.210000E+00  0.250000E-02
     1         84     2     2  0.210000E+00  0.210000E+00  0.250000E-02
     1         84     2     2  0.210000E+00  0.210000E+00  0.250000E-02
     1         84     2     2  0.210000E+00  0.210000E+00  0.250000E-02
     1         84     2     2  0.210000E+00  0.210000E+00  0.250000E-02
     1         84     2     2  0.210000E+00  0.210000E+00  0.250000E-02
     1         84     2     2  0.210000E+00  0.210000E+00  0.250000E-02
     1         84     2     2  0.210000E+00  0.210000E+00  0.250000E-02
     1         84     2     2  0.210000E+00  0.210000E+00  0.250000E-02
     1         84     2     2  0.210000E+00  0.210000E+00  0.250000E-02
     1         84     2     2  0.210000E+00  0.210000E+00  0.250000E-02
     1         84     2     2  0.210000E+00  0.210000E+00  0.250000E-02
     1         84     2     2  0.210000E+00  0.210000E+00  0.250000E-02
     1         84     2     2  0.210000E+00  0.210000E+00  0.250000E-02
     1         84     2     2  0.210000E+00  0.210000E+00  0.250000E-02
     1         84     2     2  0.210000E+00  0.210000E+00  0.250000E-02
     1         84     2     2  0.210000E+00  0.210000E+00  0.250000E-02
     1         84     2     2  0.210000E+00  0.210000E+00  0.250000E-02
     1         84     2     2  0.210000E+00  0.210000E+00  0.250000E-02
     1         84     2     2  0.210000E+00  0.210000E+00  0.250000E-02
     1         84     2     2  0.210000E+00  0.210000E+00  0.250000E-02
     1         84     2     2  0.210000E+00  0.210000E+00  0.250000E-02
     1         84     2     2  0.210000E+00  0.210000E+00  0.250000E-02
     1         84     2     2  0.210000E+00  0.210000E+00  0.250000E-02
     1         84     2     2  0.210000E+00  0.210000E+00  0.250000E-02
     1         84     2     2  0.210000E+00  0.210000E+00  0.250000E-02
     1         84     2     2  0.210000E+00  0.210000E+00  0.250000E-02
     1         84     2     2  0.210000E+00  0.210000E+00  0.250000E-02
     1         84     2     2  0.210000E+00  0.210000E+00  0.250000E-02
     1         84     2     2  0.210000E+00  0.210000E+00  0.250000E-02
     1         84     2     2  0.210000E+00  0.210000E+00  0.250000E-02
     1         84     2     2  0.210000E+00  0.210000E+00  0.250000E-02
     1         85     1     2  0.212500E+00  0.212500E+00  0.250000E-02
     1         85     2     2  0.212500E+00  0.212500E+00  0.250000E-02
     1         85     2     2  0.212500E+00  0.212500E+00  0.250000E-02
     1         86     1     2  0.215000E+00  0.215000E+00  0.250000E-02
     1         86     2     2  0.215000E+00  0.215000E+00  0.250000E-02
     1         86     2     2  0.215000E+00  0.215000E+00  0.250000E-02
     1         86     2     2  0.215000E+00  0.215000E+00  0.250000E-02
     1         87     1     2  0.217500E+00  0.217500E+00  0.250000E-02
     1         87     2     2  0.217500E+00  0.217500E+00  0.250000E-02
     1         87     2     2  0.217500E+00  0.217500E+00  0.250000E-02
     1         87     2     2  0.217500E+00  0.217500E+00  0.250000E-02
     1         87     2     2  0.217500E+00  0.217500E+00  0.250000E-02
     1         87     2     2  0.217500E+00  0.217500E+00  0.250000E-02
     1         88     1     2  0.220000E+00  0.220000E+00  0.250000E-02
     1         88     2     2  0.220000E+00  0.220000E+00  0.250000E-02
     1         88     2     2  0.220000E+00  0.220000E+00  0.250000E-02
     1         88     2     2  0.220000E+00  0.220000E+00  0.250000E-02
     1         88     2     2  0.220000E+00  0.220000E+00  0.250000E-02
     1         89     1     2  0.222500E+00  0.222500E+00  0.250000E-02
     1         89     2     2  0.222500E+00  0.222500E+00  0.250000E-02
     1         89     2     2  0.222500E+00  0.222500E+00  0.250000E-02
     1         89     2     2  0.222500E+00  0.222500E+00  0.250000E-02
     1         89     2     2  0.222500E+00  0.222500E+00  0.250000E-02
     1         89     2     2  0.222500E+00  0.222500E+00  0.250000E-02
     1         90     1     2  0.225000E+00  0.225000E+00  0.250000E-02
     1         90     2     2  0.225000E+00  0.225000E+00  0.250000E-02
     1         90     2     2  0.225000E+00  0.225000E+00  0.250000E-02
     1         90     2     2  0.225000E+00  0.225000E+00  0.250000E-02
     1         90     2     2  0.225000E+00  0.225000E+00  0.250000E-02
     1         90     2     2  0.225000E+00  0.225000E+00  0.250000E-02
     1         90     2     2  0.225000E+00  0.225000E+00  0.250000E-02
     1         90     2     2  0.225000E+00  0.225000E+00  0.250000E-02
     1         90     2     2  0.225000E+00  0.225000E+00  0.250000E-02
     1         90     2     2  0.225000E+00  0.225000E+00  0.250000E-02
     1         91     1     2  0.227500E+00  0.227500E+00  0.250000E-02
     1         91     2     2  0.227500E+00  0.227500E+00  0.250000E-02
     1         91     2     2  0.227500E+00  0.227500E+00  0.250000E-02
     1         91     2     2  0.227500E+00  0.227500E+00  0.250000E-02
     1         92     1     2  0.230000E+00  0.230000E+00  0.250000E-02
     1         92     2     2  0.230000E+00  0.230000E+00  0.250000E-02
     1         92     2     2  0.230000E+00  0.230000E+00  0.250000E-02
     1         92     2     2  0.230000E+00  0.230000E+00  0.250000E-02
     1         93     1     2  0.232500E+00  0.232500E+00  0.250000E-02
     1         93     2     2  0.232500E+00  0.232500E+00  0.250000E-02
     1         93     2     2  0.232500E+00  0.232500E+00  0.250000E-02
     1         93     2     2  0.232500E+00  0.232500E+00  0.250000E-02
     1         93     2     2  0.232500E+00  0.232500E+00  0.250000E-02
     1         94     1     2  0.235000E+00  0.235000E+00  0.250000E-02
     1         94     2     2  0.235000E+00  0.235000E+00  0.250000E-02
     1         94     2     2  0.235000E+00  0.235000E+00  0.250000E-02
     1         94     2     2  0.235000E+00  0.235000E+00  0.250000E-02
     1         95     1     2  0.237500E+00  0.237500E+00  0.250000E-02
     1         95     2     2  0.237500E+00  0.237500E+00  0.250000E-02
     1         95     2     2  0.237500E+00  0.237500E+00  0.250000E-02
     1         95     2     2  0.237500E+00  0.237500E+00  0.250000E-02
     1         95     2     2  0.237500E+00  0.237500E+00  0.250000E-02
     1         95     2     2  0.237500E+00  0.237500E+00  0.250000E-02
     1         95     2     2  0.237500E+00  0.237500E+00  0.250000E-02
     1         95     2     2  0.237500E+00  0.237500E+00  0.250000E-02
     1         95     2     2  0.237500E+00  0.237500E+00  0.250000E-02
     1         95     2     2  0.237500E+00  0.237500E+00  0.250000E-02
     1         95     2     2  0.237500E+00  0.237500E+00  0.250000E-02
     1         95     2     2  0.237500E+00  0.237500E+00  0.250000E-02
     1         95     2     2  0.237500E+00  0.237500E+00  0.250000E-02
     1         95     2     2  0.237500E+00  0.237500E+00  0.250000E-02
     1         95     2     2  0.237500E+00  0.237500E+00  0.250000E-02
     1         95     2     2  0.237500E+00  0.237500E+00  0.250000E-02
     1         95     2     2  0.237500E+00  0.237500E+00  0.250000E-02
     1         95     2     2  0.237500E+00  0.237500E+00  0.250000E-02
     1         95     2     2  0.237500E+00  0.237500E+00  0.250000E-02
     1         95     2     2  0.237500E+00  0.237500E+00  0.250000E-02
     1         95     2     2  0.237500E+00  0.237500E+00  0.250000E-02
     1         95     2     2  0.237500E+00  0.237500E+00  0.250000E-02
     1         95     2     2  0.237500E+00  0.237500E+00  0.250000E-02
     1         95     2     2  0.237500E+00  0.237500E+00  0.250000E-02
     1         96     1     2  0.240000E+00  0.240000E+00  0.250000E-02
     1         96     2     2  0.240000E+00  0.240000E+00  0.250000E-02
     1         96     2     2  0.240000E+00  0.240000E+00  0.250000E-02
     1         97     1     2  0.242500E+00  0.242500E+00  0.250000E-02
     1         97     2     2  0.242500E+00  0.242500E+00  0.250000E-02
     1         97     2     2  0.242500E+00  0.242500E+00  0.250000E-02
     1         98     1     2  0.245000E+00  0.245000E+00  0.250000E-02
     1         98     2     2  0.245000E+00  0.245000E+00  0.250000E-02
     1         98     2     2  0.245000E+00  0.245000E+00  0.250000E-02
     1         98     2     2  0.245000E+00  0.245000E+00  0.250000E-02
     1         99     1     2  0.247500E+00  0.247500E+00  0.250000E-02
     1         99     2     2  0.247500E+00  0.247500E+00  0.250000E-02
     1         99     2     2  0.247500E+00  0.247500E+00  0.250000E-02
     1         99     2     2  0.247500E+00  0.247500E+00  0.250000E-02
     1        100     1     2  0.250000E+00  0.250000E+00  0.250000E-02
     1        100     2     2  0.250000E+00  0.250000E+00  0.250000E-02
     1        100     2     2  0.250000E+00  0.250000E+00  0.250000E-02
     1        100     2     2  0.250000E+00  0.250000E+00  0.250000E-02
     1        100     2     2  0.250000E+00  0.250000E+00  0.250000E-02
     1        101     1     2  0.252500E+00  0.252500E+00  0.250000E-02
     1        101     2     2  0.252500E+00  0.252500E+00  0.250000E-02
     1        101     2     2  0.252500E+00  0.252500E+00  0.250000E-02
     1        101     2     2  0.252500E+00  0.252500E+00  0.250000E-02
     1        101     2     2  0.252500E+00  0.252500E+00  0.250000E-02
     1        101     2     2  0.252500E+00  0.252500E+00  0.250000E-02
     1        101     2     2  0.252500E+00  0.252500E+00  0.250000E-02
     1        101     2     2  0.252500E+00  0.252500E+00  0.250000E-02
     1        101     2     2  0.252500E+00  0.252500E+00  0.250000E-02
     1        101     2     2  0.252500E+00  0.252500E+00  0.250000E-02
     1        101     2     2  0.252500E+00  0.252500E+00  0.250000E-02
     1        102     1     2  0.255000E+00  0.255000E+00  0.250000E-02
     1        102     2     2  0.255000E+00  0.255000E+00  0.250000E-02
     1        102     2     2  0.255000E+00  0.255000E+00  0.250000E-02
     1        102     2     2  0.255000E+00  0.255000E+00  0.250000E-02
     1        102     2     2  0.255000E+00  0.255000E+00  0.250000E-02
     1        102     2     2  0.255000E+00  0.255000E+00  0.250000E-02
     1        102     2     2  0.255000E+00  0.255000E+00  0.250000E-02
     1        102     2     2  0.255000E+00  0.255000E+00  0.250000E-02
     1        102     2     2  0.255000E+00  0.255000E+00  0.250000E-02
     1        102     2     2  0.255000E+00  0.255000E+00  0.250000E-02
     1        102     2     2  0.255000E+00  0.255000E+00  0.250000E-02
     1        102     2     2  0.255000E+00  0.255000E+00  0.250000E-02
     1        103     1     2  0.257500E+00  0.257500E+00  0.250000E-02
     1        103     2     2  0.257500E+00  0.257500E+00  0.250000E-02
     1        103     2     2  0.257500E+00  0.257500E+00  0.250000E-02
     1        103     2     2  0.257500E+00  0.257500E+00  0.250000E-02
     1        104     1     2  0.260000E+00  0.260000E+00  0.250000E-02
     1        104     2     2  0.260000E+00  0.260000E+00  0.250000E-02
     1        104     2     2  0.260000E+00  0.260000E+00  0.250000E-02
     1        104     2     2  0.260000E+00  0.260000E+00  0.250000E-02
     1        105     1     2  0.262500E+00  0.262500E+00  0.250000E-02
     1        105     2     2  0.262500E+00  0.262500E+00  0.250000E-02
     1        105     2     2  0.262500E+00  0.262500E+00  0.250000E-02
     1        105     2     2  0.262500E+00  0.262500E+00  0.250000E-02
     1        105     2     2  0.262500E+00  0.262500E+00  0.250000E-02
     1        105     2     2  0.262500E+00  0.262500E+00  0.250000E-02
     1        105     2     2  0.262500E+00  0.262500E+00  0.250000E-02
     1        106     1     2  0.265000E+00  0.265000E+00  0.250000E-02
     1        106     2     2  0.265000E+00  0.265000E+00  0.250000E-02
     1        106     2     2  0.265000E+00  0.265000E+00  0.250000E-02
     1        106     2     2  0.265000E+00  0.265000E+00  0.250000E-02
     1        106     2     2  0.265000E+00  0.265000E+00  0.250000E-02
     1        106     2     2  0.265000E+00  0.265000E+00  0.250000E-02
     1        106     2     2  0.265000E+00  0.265000E+00  0.250000E-02
     1        107     1     2  0.267500E+00  0.267500E+00  0.250000E-02
     1        107     2     2  0.267500E+00  0.267500E+00  0.250000E-02
     1        107     2     2  0.267500E+00  0.267500E+00  0.250000E-02
     1        107     2     2  0.267500E+00  0.267500E+00  0.250000E-02
     1        107     2     2  0.267500E+00  0.267500E+00  0.250000E-02
     1        107     2     2  0.267500E+00  0.267500E+00  0.250000E-02
     1        108     1     2  0.270000E+00  0.270000E+00  0.250000E-02
     1        108     2     2  0.270000E+00  0.270000E+00  0.250000E-02
     1        108     2     2  0.270000E+00  0.270000E+00  0.250000E-02
     1        108     2     2  0.270000E+00  0.270000E+00  0.250000E-02
     1        108     2     2  0.270000E+00  0.270000E+00  0.250000E-02
     1        108     2     2  0.270000E+00  0.270000E+00  0.250000E-02
     1        109     1     2  0.272500E+00  0.272500E+00  0.250000E-02
     1        109     2     2  0.272500E+00  0.272500E+00  0.250000E-02
     1        109     2     2  0.272500E+00  0.272500E+00  0.250000E-02
     1        109     2     2  0.272500E+00  0.272500E+00  0.250000E-02
     1        109     2     2  0.272500E+00  0.272500E+00  0.250000E-02
     1        109     2     2  0.272500E+00  0.272500E+00  0.250000E-02
     1        109     2     2  0.272500E+00  0.272500E+00  0.250000E-02
     1        110     1     2  0.275000E+00  0.275000E+00  0.250000E-02
     1        110     2     2  0.275000E+00  0.275000E+00  0.250000E-02
     1        110     2     2  0.275000E+00  0.275000E+00  0.250000E-02
     1        110     2     2  0.275000E+00  0.275000E+00  0.250000E-02
     1        110     2     2  0.275000E+00  0.275000E+00  0.250000E-02
     1        111     1     2  0.277500E+00  0.277500E+00  0.250000E-02
     1        111     2     2  0.277500E+00  0.277500E+00  0.250000E-02
     1        111     2     2  0.277500E+00  0.277500E+00  0.250000E-02
     1        111     2     2  0.277500E+00  0.277500E+00  0.250000E-02
     1        112     1     2  0.280000E+00  0.280000E+00  0.250000E-02
     1        112     2     2  0.280000E+00  0.280000E+00  0.250000E-02
     1        112     2     2  0.280000E+00  0.280000E+00  0.250000E-02
     1        112     2     2  0.280000E+00  0.280000E+00  0.250000E-02
     1        112     2     2  0.280000E+00  0.280000E+00  0.250000E-02
     1        112     2     2  0.280000E+00  0.280000E+00  0.250000E-02
     1        113     1     2  0.282500E+00  0.282500E+00  0.250000E-02
     1        113     2     2  0.282500E+00  0.282500E+00  0.250000E-02
     1        113     2     2  0.282500E+00  0.282500E+00  0.250000E-02
     1        113     2     2  0.282500E+00  0.282500E+00  0.250000E-02
     1        113     2     2  0.282500E+00  0.282500E+00  0.250000E-02
     1        114     1     2  0.285000E+00  0.285000E+00  0.250000E-02
     1        114     2     2  0.285000E+00  0.285000E+00  0.250000E-02
     1        114     2     2  0.285000E+00  0.285000E+00  0.250000E-02
     1        114     2     2  0.285000E+00  0.285000E+00  0.250000E-02
     1        114     2     2  0.285000E+00  0.285000E+00  0.250000E-02
     1        114     2     2  0.285000E+00  0.285000E+00  0.250000E-02
     1        114     2     2  0.285000E+00  0.285000E+00  0.250000E-02
     1        114     2     2  0.285000E+00  0.285000E+00  0.250000E-02
     1        114     2     2  0.285000E+00  0.285000E+00  0.250000E-02
     1        114     2     2  0.285000E+00  0.285000E+00  0.250000E-02
     1        114     2     2  0.285000E+00  0.285000E+00  0.250000E-02
     1        114     2     2  0.285000E+00  0.285000E+00  0.250000E-02
     1        114     2     2  0.285000E+00  0.285000E+00  0.250000E-02
     1        114     2     2  0.285000E+00  0.285000E+00  0.250000E-02
     1        114     2     2  0.285000E+00  0.285000E+00  0.250000E-02
     1        114     2     2  0.285000E+00  0.285000E+00  0.250000E-02
     1        114     2     2  0.285000E+00  0.285000E+00  0.250000E-02
     1        114     2     2  0.285000E+00  0.285000E+00  0.250000E-02
     1        114     2     2  0.285000E+00  0.285000E+00  0.250000E-02
     1        114     2     2  0.285000E+00  0.285000E+00  0.250000E-02
     1        115     1     2  0.287500E+00  0.287500E+00  0.250000E-02
     1        115     2     2  0.287500E+00  0.287500E+00  0.250000E-02
     1        115     2     2  0.287500E+00  0.287500E+00  0.250000E-02
     1        115     2     2  0.287500E+00  0.287500E+00  0.250000E-02
     1        115     2     2  0.287500E+00  0.287500E+00  0.250000E-02
     1        115     2     2  0.287500E+00  0.287500E+00  0.250000E-02
     1        115     2     2  0.287500E+00  0.287500E+00  0.250000E-02
     1        115     2     2  0.287500E+00  0.287500E+00  0.250000E-02
     1        115     2     2  0.287500E+00  0.287500E+00  0.250000E-02
     1        115     2     2  0.287500E+00  0.287500E+00  0.250000E-02
     1        116     1     2  0.290000E+00  0.290000E+00  0.250000E-02
     1        116     2     2  0.290000E+00  0.290000E+00  0.250000E-02
     1        116     2     2  0.290000E+00  0.290000E+00  0.250000E-02
     1        116     2     2  0.290000E+00  0.290000E+00  0.250000E-02
     1        116     2     2  0.290000E+00  0.290000E+00  0.250000E-02
     1        117     1     2  0.292500E+00  0.292500E+00  0.250000E-02
     1        117     2     2  0.292500E+00  0.292500E+00  0.250000E-02
     1        117     2     2  0.292500E+00  0.292500E+00  0.250000E-02
     1        117     2     2  0.292500E+00  0.292500E+00  0.250000E-02
     1        117     2     2  0.292500E+00  0.292500E+00  0.250000E-02
     1        117     2     2  0.292500E+00  0.292500E+00  0.250000E-02
     1        117     2     2  0.292500E+00  0.292500E+00  0.250000E-02
     1        117     2     2  0.292500E+00  0.292500E+00  0.250000E-02
     1        118     1     2  0.295000E+00  0.295000E+00  0.250000E-02
     1        118     2     2  0.295000E+00  0.295000E+00  0.250000E-02
     1        118     2     2  0.295000E+00  0.295000E+00  0.250000E-02
     1        118     2     2  0.295000E+00  0.295000E+00  0.250000E-02
     1        119     1     2  0.297500E+00  0.297500E+00  0.250000E-02
     1        119     2     2  0.297500E+00  0.297500E+00  0.250000E-02
     1        119     2     2  0.297500E+00  0.297500E+00  0.250000E-02
     1        120     1     2  0.300000E+00  0.300000E+00  0.250000E-02
     1        120     2     2  0.300000E+00  0.300000E+00  0.250000E-02
     1        120     2     2  0.300000E+00  0.300000E+00  0.250000E-02
     1        120     2     2  0.300000E+00  0.300000E+00  0.250000E-02
     1        121     1     2  0.302500E+00  0.302500E+00  0.250000E-02
     1        121     2     2  0.302500E+00  0.302500E+00  0.250000E-02
     1        121     2     2  0.302500E+00  0.302500E+00  0.250000E-02
     1        121     2     2  0.302500E+00  0.302500E+00  0.250000E-02
     1        122     1     2  0.305000E+00  0.305000E+00  0.250000E-02
     1        122     2     2  0.305000E+00  0.305000E+00  0.250000E-02
     1        122     2     2  0.305000E+00  0.305000E+00  0.250000E-02
     1        122     2     2  0.305000E+00  0.305000E+00  0.250000E-02
     1        123     1     2  0.307500E+00  0.307500E+00  0.250000E-02
     1        123     2     2  0.307500E+00  0.307500E+00  0.250000E-02
     1        123     2     2  0.307500E+00  0.307500E+00  0.250000E-02
     1        123     2     2  0.307500E+00  0.307500E+00  0.250000E-02
     1        124     1     2  0.310000E+00  0.310000E+00  0.250000E-02
     1        124     2     2  0.310000E+00  0.310000E+00  0.250000E-02
     1        124     2     2  0.310000E+00  0.310000E+00  0.250000E-02
     1        125     1     2  0.312500E+00  0.312500E+00  0.250000E-02
     1        125     2     2  0.312500E+00  0.312500E+00  0.250000E-02
     1        125     2     2  0.312500E+00  0.312500E+00  0.250000E-02
     1        125     2     2  0.312500E+00  0.312500E+00  0.250000E-02
     1        125     2     2  0.312500E+00  0.312500E+00  0.250000E-02
     1        125     2     2  0.312500E+00  0.312500E+00  0.250000E-02
     1        125     2     2  0.312500E+00  0.312500E+00  0.250000E-02
     1        125     2     2  0.312500E+00  0.312500E+00  0.250000E-02
     1        125     2     2  0.312500E+00  0.312500E+00  0.250000E-02
     1        125     2     2  0.312500E+00  0.312500E+00  0.250000E-02
     1        125     2     2  0.312500E+00  0.312500E+00  0.250000E-02
     1        125     2     2  0.312500E+00  0.312500E+00  0.250000E-02
     1        125     2     2  0.312500E+00  0.312500E+00  0.250000E-02
     1        125     2     2  0.312500E+00  0.312500E+00  0.250000E-02
     1        125     2     2  0.312500E+00  0.312500E+00  0.250000E-02
     1        126     1     2  0.315000E+00  0.315000E+00  0.250000E-02
     1        126     2     2  0.315000E+00  0.315000E+00  0.250000E-02
     1        126     2     2  0.315000E+00  0.315000E+00  0.250000E-02
     1        126     2     2  0.315000E+00  0.315000E+00  0.250000E-02
     1        126     2     2  0.315000E+00  0.315000E+00  0.250000E-02
     1        126     2     2  0.315000E+00  0.315000E+00  0.250000E-02
     1        126     2     2  0.315000E+00  0.315000E+00  0.250000E-02
     1        126     2     2  0.315000E+00  0.315000E+00  0.250000E-02
     1        126     2     2  0.315000E+00  0.315000E+00  0.250000E-02
     1        126     2     2  0.315000E+00  0.315000E+00  0.250000E-02
     1        126     2     2  0.315000E+00  0.315000E+00  0.250000E-02
     1        126     2     2  0.315000E+00  0.315000E+00  0.250000E-02
     1        126     2     2  0.315000E+00  0.315000E+00  0.250000E-02
     1        126     2     2  0.315000E+00  0.315000E+00  0.250000E-02
     1        126     2     2  0.315000E+00  0.315000E+00  0.250000E-02
     1        126     2     2  0.315000E+00  0.315000E+00  0.250000E-02
     1        126     2     2  0.315000E+00  0.315000E+00  0.250000E-02
     1        126     2     2  0.315000E+00  0.315000E+00  0.250000E-02
     1        126     2     2  0.315000E+00  0.315000E+00  0.250000E-02
     1        127     1     2  0.317500E+00  0.317500E+00  0.250000E-02
     1        127     2     2  0.317500E+00  0.317500E+00  0.250000E-02
     1        127     2     2  0.317500E+00  0.317500E+00  0.250000E-02
     1        127     2     2  0.317500E+00  0.317500E+00  0.250000E-02
     1        127     2     2  0.317500E+00  0.317500E+00  0.250000E-02
     1        128     1     2  0.320000E+00  0.320000E+00  0.250000E-02
     1        128     2     2  0.320000E+00  0.320000E+00  0.250000E-02
     1        128     2     2  0.320000E+00  0.320000E+00  0.250000E-02
     1        128     2     2  0.320000E+00  0.320000E+00  0.250000E-02
     1        128     2     2  0.320000E+00  0.320000E+00  0.250000E-02
     1        128     2     2  0.320000E+00  0.320000E+00  0.250000E-02
     1        128     2     2  0.320000E+00  0.320000E+00  0.250000E-02
     1        128     2     2  0.320000E+00  0.320000E+00  0.250000E-02
     1        128     2     2  0.320000E+00  0.320000E+00  0.250000E-02
     1        128     2     2  0.320000E+00  0.320000E+00  0.250000E-02
     1        128     2     2  0.320000E+00  0.320000E+00  0.250000E-02
     1        128     2     2  0.320000E+00  0.320000E+00  0.250000E-02
     1        128     2     2  0.320000E+00  0.320000E+00  0.250000E-02
     1        128     2     2  0.320000E+00  0.320000E+00  0.250000E-02
     1        128     2     2  0.320000E+00  0.320000E+00  0.250000E-02
     1        128     2     2  0.320000E+00  0.320000E+00  0.250000E-02
     1        128     2     2  0.320000E+00  0.320000E+00  0.250000E-02
     1        128     2     2  0.320000E+00  0.320000E+00  0.250000E-02
     1        128     2     2  0.320000E+00  0.320000E+00  0.250000E-02
     1        128     2     2  0.320000E+00  0.320000E+00  0.250000E-02
     1        128     2     2  0.320000E+00  0.320000E+00  0.250000E-02
     1        128     2     2  0.320000E+00  0.320000E+00  0.250000E-02
     1        128     2     2  0.320000E+00  0.320000E+00  0.250000E-02
     1        128     2     2  0.320000E+00  0.320000E+00  0.250000E-02
     1        128     2     2  0.320000E+00  0.320000E+00  0.250000E-02
     1        129     1     2  0.322500E+00  0.322500E+00  0.250000E-02
     1        129     2     2  0.322500E+00  0.322500E+00  0.250000E-02
     1        129     2     2  0.322500E+00  0.322500E+00  0.250000E-02
     1        129     2     2  0.322500E+00  0.322500E+00  0.250000E-02
     1        130     1     2  0.325000E+00  0.325000E+00  0.250000E-02
     1        130     2     2  0.325000E+00  0.325000E+00  0.250000E-02
     1        130     2     2  0.325000E+00  0.325000E+00  0.250000E-02
     1        130     2     2  0.325000E+00  0.325000E+00  0.250000E-02
     1        130     2     2  0.325000E+00  0.325000E+00  0.250000E-02
     1        131     1     2  0.327500E+00  0.327500E+00  0.250000E-02
     1        131     2     2  0.327500E+00  0.327500E+00  0.250000E-02
     1        131     2     2  0.327500E+00  0.327500E+00  0.250000E-02
     1        131     2     2  0.327500E+00  0.327500E+00  0.250000E-02
     1        131     2     2  0.327500E+00  0.327500E+00  0.250000E-02
     1        131     2     2  0.327500E+00  0.327500E+00  0.250000E-02
     1        131     2     2  0.327500E+00  0.327500E+00  0.250000E-02
     1        131     2     2  0.327500E+00  0.327500E+00  0.250000E-02
     1        131     2     2  0.327500E+00  0.327500E+00  0.250000E-02
     1        131     2     2  0.327500E+00  0.327500E+00  0.250000E-02
     1        131     2     2  0.327500E+00  0.327500E+00  0.250000E-02
     1        131     2     2  0.327500E+00  0.327500E+00  0.250000E-02
     1        131     2     2  0.327500E+00  0.327500E+00  0.250000E-02
     1        131     2     2  0.327500E+00  0.327500E+00  0.250000E-02
     1        131     2     2  0.327500E+00  0.327500E+00  0.250000E-02
     1        132     1     2  0.330000E+00  0.330000E+00  0.250000E-02
     1        132     2     2  0.330000E+00  0.330000E+00  0.250000E-02
     1        132     2     2  0.330000E+00  0.330000E+00  0.250000E-02
     1        132     2     2  0.330000E+00  0.330000E+00  0.250000E-02
     1        133     1     2  0.332500E+00  0.332500E+00  0.250000E-02
     1        133     2     2  0.332500E+00  0.332500E+00  0.250000E-02
     1        133     2     2  0.332500E+00  0.332500E+00  0.250000E-02
     1        133     2     2  0.332500E+00  0.332500E+00  0.250000E-02
     1        133     2     2  0.332500E+00  0.332500E+00  0.250000E-02
     1        134     1     2  0.335000E+00  0.335000E+00  0.250000E-02
     1        134     2     2  0.335000E+00  0.335000E+00  0.250000E-02
     1        134     2     2  0.335000E+00  0.335000E+00  0.250000E-02
     1        134     2     2  0.335000E+00  0.335000E+00  0.250000E-02
     1        135     1     2  0.337500E+00  0.337500E+00  0.250000E-02
     1        135     2     2  0.337500E+00  0.337500E+00  0.250000E-02
     1        135     2     2  0.337500E+00  0.337500E+00  0.250000E-02
     1        135     2     2  0.337500E+00  0.337500E+00  0.250000E-02
     1        136     1     2  0.340000E+00  0.340000E+00  0.250000E-02
     1        136     2     2  0.340000E+00  0.340000E+00  0.250000E-02
     1        136     2     2  0.340000E+00  0.340000E+00  0.250000E-02
     1        136     2     2  0.340000E+00  0.340000E+00  0.250000E-02
     1        137     1     2  0.342500E+00  0.342500E+00  0.250000E-02
     1        137     2     2  0.342500E+00  0.342500E+00  0.250000E-02
     1        137     2     2  0.342500E+00  0.342500E+00  0.250000E-02
     1        137     2     2  0.342500E+00  0.342500E+00  0.250000E-02
     1        138     1     2  0.345000E+00  0.345000E+00  0.250000E-02
     1        138     2     2  0.345000E+00  0.345000E+00  0.250000E-02
     1        138     2     2  0.345000E+00  0.345000E+00  0.250000E-02
     1        138     2     2  0.345000E+00  0.345000E+00  0.250000E-02
     1        139     1     2  0.347500E+00  0.347500E+00  0.250000E-02
     1        139     2     2  0.347500E+00  0.347500E+00  0.250000E-02
     1        139     2     2  0.347500E+00  0.347500E+00  0.250000E-02
     1        139     2     2  0.347500E+00  0.347500E+00  0.250000E-02
     1        139     2     2  0.347500E+00  0.347500E+00  0.250000E-02
     1        139     2     2  0.347500E+00  0.347500E+00  0.250000E-02
     1        139     2     2  0.347500E+00  0.347500E+00  0.250000E-02
     1        139     2     2  0.347500E+00  0.347500E+00  0.250000E-02
     1        139     2     2  0.347500E+00  0.347500E+00  0.250000E-02
     1        139     2     2  0.347500E+00  0.347500E+00  0.250000E-02
     1        139     2     2  0.347500E+00  0.347500E+00  0.250000E-02
     1        139     2     2  0.347500E+00  0.347500E+00  0.250000E-02
     1        140     1     2  0.350000E+00  0.350000E+00  0.250000E-02
     1        140     2     2  0.350000E+00  0.350000E+00  0.250000E-02
     1        140     2     2  0.350000E+00  0.350000E+00  0.250000E-02
     1        140     2     2  0.350000E+00  0.350000E+00  0.250000E-02
     1        141     1     2  0.352500E+00  0.352500E+00  0.250000E-02
     1        141     2     2  0.352500E+00  0.352500E+00  0.250000E-02
     1        141     2     2  0.352500E+00  0.352500E+00  0.250000E-02
     1        141     2     2  0.352500E+00  0.352500E+00  0.250000E-02
     1        141     2     2  0.352500E+00  0.352500E+00  0.250000E-02
     1        142     1     2  0.355000E+00  0.355000E+00  0.250000E-02
     1        142     2     2  0.355000E+00  0.355000E+00  0.250000E-02
     1        142     2     2  0.355000E+00  0.355000E+00  0.250000E-02
     1        142     2     2  0.355000E+00  0.355000E+00  0.250000E-02
     1        143     1     2  0.357500E+00  0.357500E+00  0.250000E-02
     1        143     2     2  0.357500E+00  0.357500E+00  0.250000E-02
     1        143     2     2  0.357500E+00  0.357500E+00  0.250000E-02
     1        143     2     2  0.357500E+00  0.357500E+00  0.250000E-02
     1        143     2     2  0.357500E+00  0.357500E+00  0.250000E-02
     1        143     2     2  0.357500E+00  0.357500E+00  0.250000E-02
     1        143     2     2  0.357500E+00  0.357500E+00  0.250000E-02
     1        143     2     2  0.357500E+00  0.357500E+00  0.250000E-02
     1        143     2     2  0.357500E+00  0.357500E+00  0.250000E-02
     1        143     2     2  0.357500E+00  0.357500E+00  0.250000E-02
     1        143     2     2  0.357500E+00  0.357500E+00  0.250000E-02
     1        143     2     2  0.357500E+00  0.357500E+00  0.250000E-02
     1        143     2     2  0.357500E+00  0.357500E+00  0.250000E-02
     1        143     2     2  0.357500E+00  0.357500E+00  0.250000E-02
     1        143     2     2  0.357500E+00  0.357500E+00  0.250000E-02
     1        143     2     2  0.357500E+00  0.357500E+00  0.250000E-02
     1        143     2     2  0.357500E+00  0.357500E+00  0.250000E-02
     1        143     2     2  0.357500E+00  0.357500E+00  0.250000E-02
     1        143     2     2  0.357500E+00  0.357500E+00  0.250000E-02
     1        143     2     2  0.357500E+00  0.357500E+00  0.250000E-02
     1        143     2     2  0.357500E+00  0.357500E+00  0.250000E-02
     1        143     2     2  0.357500E+00  0.357500E+00  0.250000E-02
     1        143     2     2  0.357500E+00  0.357500E+00  0.250000E-02
     1        143     2     2  0.357500E+00  0.357500E+00  0.250000E-02
     1        143     2     2  0.357500E+00  0.357500E+00  0.250000E-02
     1        143     2     2  0.357500E+00  0.357500E+00  0.250000E-02
     1        143     2     2  0.357500E+00  0.357500E+00  0.250000E-02
     1        143     2     2  0.357500E+00  0.357500E+00  0.250000E-02
     1        143     2     2  0.357500E+00  0.357500E+00  0.250000E-02
     1        143     2     2  0.357500E+00  0.357500E+00  0.250000E-02
     1        143     2     2  0.357500E+00  0.357500E+00  0.250000E-02
     1        143     2     2  0.357500E+00  0.357500E+00  0.250000E-02
     1        143     2     2  0.357500E+00  0.357500E+00  0.250000E-02
     1        143     2     2  0.357500E+00  0.357500E+00  0.250000E-02
     1        143     2     2  0.357500E+00  0.357500E+00  0.250000E-02
     1        143     2     2  0.357500E+00  0.357500E+00  0.250000E-02
     1        144     1     2  0.360000E+00  0.360000E+00  0.250000E-02
     1        144     2     2  0.360000E+00  0.360000E+00  0.250000E-02
     1        144     2     2  0.360000E+00  0.360000E+00  0.250000E-02
     1        144     2     2  0.360000E+00  0.360000E+00  0.250000E-02
     1        145     1     2  0.362500E+00  0.362500E+00  0.250000E-02
     1        145     2     2  0.362500E+00  0.362500E+00  0.250000E-02
     1        145     2     2  0.362500E+00  0.362500E+00  0.250000E-02
     1        145     2     2  0.362500E+00  0.362500E+00  0.250000E-02
     1        145     2     2  0.362500E+00  0.362500E+00  0.250000E-02
     1        145     2     2  0.362500E+00  0.362500E+00  0.250000E-02
     1        145     2     2  0.362500E+00  0.362500E+00  0.250000E-02
     1        145     2     2  0.362500E+00  0.362500E+00  0.250000E-02
     1        145     2     2  0.362500E+00  0.362500E+00  0.250000E-02
     1        145     2     2  0.362500E+00  0.362500E+00  0.250000E-02
     1        145     2     2  0.362500E+00  0.362500E+00  0.250000E-02
     1        146     1     2  0.365000E+00  0.365000E+00  0.250000E-02
     1        146     2     2  0.365000E+00  0.365000E+00  0.250000E-02
     1        146     2     2  0.365000E+00  0.365000E+00  0.250000E-02
     1        146     2     2  0.365000E+00  0.365000E+00  0.250000E-02
     1        146     2     2  0.365000E+00  0.365000E+00  0.250000E-02
     1        146     2     2  0.365000E+00  0.365000E+00  0.250000E-02
     1        146     2     2  0.365000E+00  0.365000E+00  0.250000E-02
     1        146     2     2  0.365000E+00  0.365000E+00  0.250000E-02
     1        146     2     2  0.365000E+00  0.365000E+00  0.250000E-02
     1        147     1     2  0.367500E+00  0.367500E+00  0.250000E-02
     1        147     2     2  0.367500E+00  0.367500E+00  0.250000E-02
     1        147     2     2  0.367500E+00  0.367500E+00  0.250000E-02
     1        147     2     2  0.367500E+00  0.367500E+00  0.250000E-02
     1        147     2     2  0.367500E+00  0.367500E+00  0.250000E-02
     1        147     2     2  0.367500E+00  0.367500E+00  0.250000E-02
     1        148     1     2  0.370000E+00  0.370000E+00  0.250000E-02
     1        148     2     2  0.370000E+00  0.370000E+00  0.250000E-02
     1        148     2     2  0.370000E+00  0.370000E+00  0.250000E-02
     1        148     2     2  0.370000E+00  0.370000E+00  0.250000E-02
     1        149     1     2  0.372500E+00  0.372500E+00  0.250000E-02
     1        149     2     2  0.372500E+00  0.372500E+00  0.250000E-02
     1        149     2     2  0.372500E+00  0.372500E+00  0.250000E-02
     1        149     2     2  0.372500E+00  0.372500E+00  0.250000E-02
     1        149     2     2  0.372500E+00  0.372500E+00  0.250000E-02
     1        149     2     2  0.372500E+00  0.372500E+00  0.250000E-02
     1        149     2     2  0.372500E+00  0.372500E+00  0.250000E-02
     1        149     2     2  0.372500E+00  0.372500E+00  0.250000E-02
     1        149     2     2  0.372500E+00  0.372500E+00  0.250000E-02
     1        149     2     2  0.372500E+00  0.372500E+00  0.250000E-02
     1        149     2     2  0.372500E+00  0.372500E+00  0.250000E-02
     1        149     2     2  0.372500E+00  0.372500E+00  0.250000E-02
     1        149     2     2  0.372500E+00  0.372500E+00  0.250000E-02
     1        149     2     2  0.372500E+00  0.372500E+00  0.250000E-02
     1        150     1     2  0.375000E+00  0.375000E+00  0.250000E-02
     1        150     2     2  0.375000E+00  0.375000E+00  0.250000E-02
     1        150     2     2  0.375000E+00  0.375000E+00  0.250000E-02
     1        151     1     2  0.377500E+00  0.377500E+00  0.250000E-02
     1        151     2     2  0.377500E+00  0.377500E+00  0.250000E-02
     1        151     2     2  0.377500E+00  0.377500E+00  0.250000E-02
     1        152     1     2  0.380000E+00  0.380000E+00  0.250000E-02
     1        152     2     2  0.380000E+00  0.380000E+00  0.250000E-02
     1        152     2     2  0.380000E+00  0.380000E+00  0.250000E-02
     1        152     2     2  0.380000E+00  0.380000E+00  0.250000E-02
     1        153     1     2  0.382500E+00  0.382500E+00  0.250000E-02
[...]
     1        161     2     2  0.402500E+00  0.402500E+00  0.250000E-02
     1        161     2     2  0.402500E+00  0.402500E+00  0.250000E-02
     1        162     1     2  0.405000E+00  0.405000E+00  0.250000E-02
     1        162     2     2  0.405000E+00  0.405000E+00  0.250000E-02
     1        162     2     2  0.405000E+00  0.405000E+00  0.250000E-02
     1        162     2     2  0.405000E+00  0.405000E+00  0.250000E-02
     1        162     2     2  0.405000E+00  0.405000E+00  0.250000E-02
     1        163     1     2  0.407500E+00  0.407500E+00  0.250000E-02
     1        163     2     2  0.407500E+00  0.407500E+00  0.250000E-02
     1        163     2     2  0.407500E+00  0.407500E+00  0.250000E-02
     1        163     2     2  0.407500E+00  0.407500E+00  0.250000E-02
     1        163     2     2  0.407500E+00  0.407500E+00  0.250000E-02
     1        164     1     2  0.410000E+00  0.410000E+00  0.250000E-02
     1        164     2     2  0.410000E+00  0.410000E+00  0.250000E-02
     1        164     2     2  0.410000E+00  0.410000E+00  0.250000E-02
     1        164     2     2  0.410000E+00  0.410000E+00  0.250000E-02
     1        164     2     2  0.410000E+00  0.410000E+00  0.250000E-02
     1        165     1     2  0.412500E+00  0.412500E+00  0.250000E-02
     1        165     2     2  0.412500E+00  0.412500E+00  0.250000E-02
     1        165     2     2  0.412500E+00  0.412500E+00  0.250000E-02
     1        165     2     2  0.412500E+00  0.412500E+00  0.250000E-02
     1        165     2     2  0.412500E+00  0.412500E+00  0.250000E-02
     1        165     2     2  0.412500E+00  0.412500E+00  0.250000E-02
     1        165     2     2  0.412500E+00  0.412500E+00  0.250000E-02
     1        165     2     2  0.412500E+00  0.412500E+00  0.250000E-02
     1        166     1     2  0.415000E+00  0.415000E+00  0.250000E-02
     1        166     2     2  0.415000E+00  0.415000E+00  0.250000E-02
     1        166     2     2  0.415000E+00  0.415000E+00  0.250000E-02
     1        166     2     2  0.415000E+00  0.415000E+00  0.250000E-02
     1        166     2     2  0.415000E+00  0.415000E+00  0.250000E-02
     1        166     2     2  0.415000E+00  0.415000E+00  0.250000E-02
     1        166     2     2  0.415000E+00  0.415000E+00  0.250000E-02
     1        166     2     2  0.415000E+00  0.415000E+00  0.250000E-02
     1        166     2     2  0.415000E+00  0.415000E+00  0.250000E-02
     1        166     2     2  0.415000E+00  0.415000E+00  0.250000E-02
     1        167     1     2  0.417500E+00  0.417500E+00  0.250000E-02
     1        167     2     2  0.417500E+00  0.417500E+00  0.250000E-02
     1        167     2     2  0.417500E+00  0.417500E+00  0.250000E-02
     1        167     2     2  0.417500E+00  0.417500E+00  0.250000E-02
     1        167     2     2  0.417500E+00  0.417500E+00  0.250000E-02
     1        167     2     2  0.417500E+00  0.417500E+00  0.250000E-02
     1        167     2     2  0.417500E+00  0.417500E+00  0.250000E-02
     1        168     1     2  0.420000E+00  0.420000E+00  0.250000E-02
     1        168     2     2  0.420000E+00  0.420000E+00  0.250000E-02
     1        168     2     2  0.420000E+00  0.420000E+00  0.250000E-02
     1        168     2     2  0.420000E+00  0.420000E+00  0.250000E-02
     1        168     2     2  0.420000E+00  0.420000E+00  0.250000E-02
     1        168     2     2  0.420000E+00  0.420000E+00  0.250000E-02
     1        169     1     2  0.422500E+00  0.422500E+00  0.250000E-02
     1        169     2     2  0.422500E+00  0.422500E+00  0.250000E-02
     1        169     2     2  0.422500E+00  0.422500E+00  0.250000E-02
     1        169     2     2  0.422500E+00  0.422500E+00  0.250000E-02
     1        169     2     2  0.422500E+00  0.422500E+00  0.250000E-02
     1        169     2     2  0.422500E+00  0.422500E+00  0.250000E-02
     1        170     1     2  0.425000E+00  0.425000E+00  0.250000E-02
     1        170     2     2  0.425000E+00  0.425000E+00  0.250000E-02
     1        170     2     2  0.425000E+00  0.425000E+00  0.250000E-02
     1        170     2     2  0.425000E+00  0.425000E+00  0.250000E-02
     1        171     1     2  0.427500E+00  0.427500E+00  0.250000E-02
     1        171     2     2  0.427500E+00  0.427500E+00  0.250000E-02
     1        171     2     2  0.427500E+00  0.427500E+00  0.250000E-02
     1        171     2     2  0.427500E+00  0.427500E+00  0.250000E-02
     1        171     2     2  0.427500E+00  0.427500E+00  0.250000E-02
     1        171     2     2  0.427500E+00  0.427500E+00  0.250000E-02
     1        172     1     2  0.430000E+00  0.430000E+00  0.250000E-02
     1        172     2     2  0.430000E+00  0.430000E+00  0.250000E-02
     1        172     2     2  0.430000E+00  0.430000E+00  0.250000E-02
     1        172     2     2  0.430000E+00  0.430000E+00  0.250000E-02
     1        172     2     2  0.430000E+00  0.430000E+00  0.250000E-02
     1        173     1     2  0.432500E+00  0.432500E+00  0.250000E-02
     1        173     2     2  0.432500E+00  0.432500E+00  0.250000E-02
     1        173     2     2  0.432500E+00  0.432500E+00  0.250000E-02
     1        173     2     2  0.432500E+00  0.432500E+00  0.250000E-02
     1        174     1     2  0.435000E+00  0.435000E+00  0.250000E-02
     1        174     2     2  0.435000E+00  0.435000E+00  0.250000E-02
     1        174     2     2  0.435000E+00  0.435000E+00  0.250000E-02
     1        174     2     2  0.435000E+00  0.435000E+00  0.250000E-02
     1        175     1     2  0.437500E+00  0.437500E+00  0.250000E-02
     1        175     2     2  0.437500E+00  0.437500E+00  0.250000E-02
     1        175     2     2  0.437500E+00  0.437500E+00  0.250000E-02
     1        175     2     2  0.437500E+00  0.437500E+00  0.250000E-02
     1        175     2     2  0.437500E+00  0.437500E+00  0.250000E-02
     1        176     1     2  0.440000E+00  0.440000E+00  0.250000E-02
     1        176     2     2  0.440000E+00  0.440000E+00  0.250000E-02
     1        176     2     2  0.440000E+00  0.440000E+00  0.250000E-02
     1        176     2     2  0.440000E+00  0.440000E+00  0.250000E-02
     1        176     2     2  0.440000E+00  0.440000E+00  0.250000E-02
     1        176     2     2  0.440000E+00  0.440000E+00  0.250000E-02
     1        176     2     2  0.440000E+00  0.440000E+00  0.250000E-02
     1        176     2     2  0.440000E+00  0.440000E+00  0.250000E-02
     1        176     2     2  0.440000E+00  0.440000E+00  0.250000E-02
     1        176     2     2  0.440000E+00  0.440000E+00  0.250000E-02
     1        176     2     2  0.440000E+00  0.440000E+00  0.250000E-02
     1        177     1     2  0.442500E+00  0.442500E+00  0.250000E-02
     1        177     2     2  0.442500E+00  0.442500E+00  0.250000E-02
     1        177     2     2  0.442500E+00  0.442500E+00  0.250000E-02
     1        177     2     2  0.442500E+00  0.442500E+00  0.250000E-02
     1        177     2     2  0.442500E+00  0.442500E+00  0.250000E-02
     1        177     2     2  0.442500E+00  0.442500E+00  0.250000E-02
     1        177     2     2  0.442500E+00  0.442500E+00  0.250000E-02
     1        177     2     2  0.442500E+00  0.442500E+00  0.250000E-02
     1        177     2     2  0.442500E+00  0.442500E+00  0.250000E-02
     1        178     1     2  0.445000E+00  0.445000E+00  0.250000E-02
     1        178     2     2  0.445000E+00  0.445000E+00  0.250000E-02
     1        178     2     2  0.445000E+00  0.445000E+00  0.250000E-02
     1        178     2     2  0.445000E+00  0.445000E+00  0.250000E-02
     1        178     2     2  0.445000E+00  0.445000E+00  0.250000E-02
     1        179     1     2  0.447500E+00  0.447500E+00  0.250000E-02
     1        179     2     2  0.447500E+00  0.447500E+00  0.250000E-02
     1        179     2     2  0.447500E+00  0.447500E+00  0.250000E-02
     1        179     2     2  0.447500E+00  0.447500E+00  0.250000E-02
     1        179     2     2  0.447500E+00  0.447500E+00  0.250000E-02
     1        179     2     2  0.447500E+00  0.447500E+00  0.250000E-02
     1        179     2     2  0.447500E+00  0.447500E+00  0.250000E-02
     1        179     2     2  0.447500E+00  0.447500E+00  0.250000E-02
     1        179     2     2  0.447500E+00  0.447500E+00  0.250000E-02
     1        179     2     2  0.447500E+00  0.447500E+00  0.250000E-02
     1        179     2     2  0.447500E+00  0.447500E+00  0.250000E-02
     1        179     2     2  0.447500E+00  0.447500E+00  0.250000E-02
     1        179     2     2  0.447500E+00  0.447500E+00  0.250000E-02
     1        179     2     2  0.447500E+00  0.447500E+00  0.250000E-02
     1        179     2     2  0.447500E+00  0.447500E+00  0.250000E-02
     1        179     2     2  0.447500E+00  0.447500E+00  0.250000E-02
     1        179     2     2  0.447500E+00  0.447500E+00  0.250000E-02
     1        179     2     2  0.447500E+00  0.447500E+00  0.250000E-02
     1        179     2     2  0.447500E+00  0.447500E+00  0.250000E-02
     1        179     2     2  0.447500E+00  0.447500E+00  0.250000E-02
     1        179     2     2  0.447500E+00  0.447500E+00  0.250000E-02
     1        179     2     2  0.447500E+00  0.447500E+00  0.250000E-02
     1        179     2     2  0.447500E+00  0.447500E+00  0.250000E-02
     1        179     2     2  0.447500E+00  0.447500E+00  0.250000E-02
     1        179     2     2  0.447500E+00  0.447500E+00  0.250000E-02
     1        179     2     2  0.447500E+00  0.447500E+00  0.250000E-02
     1        179     2     2  0.447500E+00  0.447500E+00  0.250000E-02
     1        179     2     2  0.447500E+00  0.447500E+00  0.250000E-02
     1        179     2     2  0.447500E+00  0.447500E+00  0.250000E-02
     1        179     2     2  0.447500E+00  0.447500E+00  0.250000E-02
     1        179     2     2  0.447500E+00  0.447500E+00  0.250000E-02
     1        179     2     2  0.447500E+00  0.447500E+00  0.250000E-02
     1        179     2     2  0.447500E+00  0.447500E+00  0.250000E-02
     1        179     2     2  0.447500E+00  0.447500E+00  0.250000E-02
     1        180     1     2  0.450000E+00  0.450000E+00  0.250000E-02
     1        180     2     2  0.450000E+00  0.450000E+00  0.250000E-02
     1        180     2     2  0.450000E+00  0.450000E+00  0.250000E-02
     1        180     2     2  0.450000E+00  0.450000E+00  0.250000E-02
     1        180     2     2  0.450000E+00  0.450000E+00  0.250000E-02
     1        180     2     2  0.450000E+00  0.450000E+00  0.250000E-02
     1        180     2     2  0.450000E+00  0.450000E+00  0.250000E-02
     1        180     2     2  0.450000E+00  0.450000E+00  0.250000E-02
     1        180     2     2  0.450000E+00  0.450000E+00  0.250000E-02
     1        180     2     2  0.450000E+00  0.450000E+00  0.250000E-02
     1        181     1     2  0.452500E+00  0.452500E+00  0.250000E-02
     1        181     2     2  0.452500E+00  0.452500E+00  0.250000E-02
     1        181     2     2  0.452500E+00  0.452500E+00  0.250000E-02
     1        182     1     2  0.455000E+00  0.455000E+00  0.250000E-02
     1        182     2     2  0.455000E+00  0.455000E+00  0.250000E-02
     1        182     2     2  0.455000E+00  0.455000E+00  0.250000E-02
     1        182     2     2  0.455000E+00  0.455000E+00  0.250000E-02
     1        183     1     2  0.457500E+00  0.457500E+00  0.250000E-02
     1        183     2     2  0.457500E+00  0.457500E+00  0.250000E-02
     1        183     2     2  0.457500E+00  0.457500E+00  0.250000E-02
     1        183     2     2  0.457500E+00  0.457500E+00  0.250000E-02
     1        183     2     2  0.457500E+00  0.457500E+00  0.250000E-02
     1        184     1     2  0.460000E+00  0.460000E+00  0.250000E-02
     1        184     2     2  0.460000E+00  0.460000E+00  0.250000E-02
     1        184     2     2  0.460000E+00  0.460000E+00  0.250000E-02
     1        185     1     2  0.462500E+00  0.462500E+00  0.250000E-02
     1        185     2     2  0.462500E+00  0.462500E+00  0.250000E-02
     1        185     2     2  0.462500E+00  0.462500E+00  0.250000E-02
     1        185     2     2  0.462500E+00  0.462500E+00  0.250000E-02
     1        185     2     2  0.462500E+00  0.462500E+00  0.250000E-02
     1        185     2     2  0.462500E+00  0.462500E+00  0.250000E-02
     1        185     2     2  0.462500E+00  0.462500E+00  0.250000E-02
     1        186     1     2  0.465000E+00  0.465000E+00  0.250000E-02
     1        186     2     2  0.465000E+00  0.465000E+00  0.250000E-02
     1        186     2     2  0.465000E+00  0.465000E+00  0.250000E-02
     1        186     2     2  0.465000E+00  0.465000E+00  0.250000E-02
     1        186     2     2  0.465000E+00  0.465000E+00  0.250000E-02
     1        186     2     2  0.465000E+00  0.465000E+00  0.250000E-02
     1        187     1     2  0.467500E+00  0.467500E+00  0.250000E-02
     1        187     2     2  0.467500E+00  0.467500E+00  0.250000E-02
     1        187     2     2  0.467500E+00  0.467500E+00  0.250000E-02
     1        187     2     2  0.467500E+00  0.467500E+00  0.250000E-02
     1        188     1     2  0.470000E+00  0.470000E+00  0.250000E-02
     1        188     2     2  0.470000E+00  0.470000E+00  0.250000E-02
     1        188     2     2  0.470000E+00  0.470000E+00  0.250000E-02
     1        188     2     2  0.470000E+00  0.470000E+00  0.250000E-02
     1        189     1     2  0.472500E+00  0.472500E+00  0.250000E-02
     1        189     2     2  0.472500E+00  0.472500E+00  0.250000E-02
     1        189     2     2  0.472500E+00  0.472500E+00  0.250000E-02
     1        189     2     2  0.472500E+00  0.472500E+00  0.250000E-02
     1        189     2     2  0.472500E+00  0.472500E+00  0.250000E-02
     1        190     1     2  0.475000E+00  0.475000E+00  0.250000E-02
     1        190     2     2  0.475000E+00  0.475000E+00  0.250000E-02
     1        190     2     2  0.475000E+00  0.475000E+00  0.250000E-02
     1        190     2     2  0.475000E+00  0.475000E+00  0.250000E-02
     1        190     2     2  0.475000E+00  0.475000E+00  0.250000E-02
     1        190     2     2  0.475000E+00  0.475000E+00  0.250000E-02
     1        190     2     2  0.475000E+00  0.475000E+00  0.250000E-02
     1        190     2     2  0.475000E+00  0.475000E+00  0.250000E-02
     1        190     2     2  0.475000E+00  0.475000E+00  0.250000E-02
     1        190     2     2  0.475000E+00  0.475000E+00  0.250000E-02
     1        190     2     2  0.475000E+00  0.475000E+00  0.250000E-02
     1        190     2     2  0.475000E+00  0.475000E+00  0.250000E-02
     1        190     2     2  0.475000E+00  0.475000E+00  0.250000E-02
     1        190     2     2  0.475000E+00  0.475000E+00  0.250000E-02
     1        190     2     2  0.475000E+00  0.475000E+00  0.250000E-02
     1        190     2     2  0.475000E+00  0.475000E+00  0.250000E-02
     1        190     2     2  0.475000E+00  0.475000E+00  0.250000E-02
     1        190     2     2  0.475000E+00  0.475000E+00  0.250000E-02
     1        190     2     2  0.475000E+00  0.475000E+00  0.250000E-02
     1        190     2     2  0.475000E+00  0.475000E+00  0.250000E-02
     1        190     2     2  0.475000E+00  0.475000E+00  0.250000E-02
     1        190     2     2  0.475000E+00  0.475000E+00  0.250000E-02
     1        190     2     2  0.475000E+00  0.475000E+00  0.250000E-02
     1        190     2     2  0.475000E+00  0.475000E+00  0.250000E-02
     1        191     1     2  0.477500E+00  0.477500E+00  0.250000E-02
     1        191     2     2  0.477500E+00  0.477500E+00  0.250000E-02
     1        191     2     2  0.477500E+00  0.477500E+00  0.250000E-02
     1        191     2     2  0.477500E+00  0.477500E+00  0.250000E-02
     1        191     2     2  0.477500E+00  0.477500E+00  0.250000E-02
     1        191     2     2  0.477500E+00  0.477500E+00  0.250000E-02
     1        192     1     2  0.480000E+00  0.480000E+00  0.250000E-02
     1        192     2     2  0.480000E+00  0.480000E+00  0.250000E-02
     1        192     2     2  0.480000E+00  0.480000E+00  0.250000E-02
     1        192     2     2  0.480000E+00  0.480000E+00  0.250000E-02
     1        192     2     2  0.480000E+00  0.480000E+00  0.250000E-02
     1        192     2     2  0.480000E+00  0.480000E+00  0.250000E-02
     1        192     2     2  0.480000E+00  0.480000E+00  0.250000E-02
     1        192     2     2  0.480000E+00  0.480000E+00  0.250000E-02
     1        192     2     2  0.480000E+00  0.480000E+00  0.250000E-02
     1        192     2     2  0.480000E+00  0.480000E+00  0.250000E-02
     1        192     2     2  0.480000E+00  0.480000E+00  0.250000E-02
     1        192     2     2  0.480000E+00  0.480000E+00  0.250000E-02
     1        192     2     2  0.480000E+00  0.480000E+00  0.250000E-02
     1        192     2     2  0.480000E+00  0.480000E+00  0.250000E-02
     1        192     2     2  0.480000E+00  0.480000E+00  0.250000E-02
     1        192     2     2  0.480000E+00  0.480000E+00  0.250000E-02
     1        192     2     2  0.480000E+00  0.480000E+00  0.250000E-02
     1        192     2     2  0.480000E+00  0.480000E+00  0.250000E-02
     1        193     1     2  0.482500E+00  0.482500E+00  0.250000E-02
     1        193     2     2  0.482500E+00  0.482500E+00  0.250000E-02
     1        193     2     2  0.482500E+00  0.482500E+00  0.250000E-02
     1        193     2     2  0.482500E+00  0.482500E+00  0.250000E-02
     1        194     1     2  0.485000E+00  0.485000E+00  0.250000E-02
     1        194     2     2  0.485000E+00  0.485000E+00  0.250000E-02
     1        194     2     2  0.485000E+00  0.485000E+00  0.250000E-02
     1        194     2     2  0.485000E+00  0.485000E+00  0.250000E-02
     1        195     1     2  0.487500E+00  0.487500E+00  0.250000E-02
     1        195     2     2  0.487500E+00  0.487500E+00  0.250000E-02
     1        195     2     2  0.487500E+00  0.487500E+00  0.250000E-02
     1        195     2     2  0.487500E+00  0.487500E+00  0.250000E-02
     1        196     1     2  0.490000E+00  0.490000E+00  0.250000E-02
     1        196     2     2  0.490000E+00  0.490000E+00  0.250000E-02
     1        196     2     2  0.490000E+00  0.490000E+00  0.250000E-02
     1        196     2     2  0.490000E+00  0.490000E+00  0.250000E-02
     1        197     1     2  0.492500E+00  0.492500E+00  0.250000E-02
     1        197     2     2  0.492500E+00  0.492500E+00  0.250000E-02
     1        197     2     2  0.492500E+00  0.492500E+00  0.250000E-02
     1        197     2     2  0.492500E+00  0.492500E+00  0.250000E-02
     1        198     1     2  0.495000E+00  0.495000E+00  0.250000E-02
     1        198     2     2  0.495000E+00  0.495000E+00  0.250000E-02
     1        198     2     2  0.495000E+00  0.495000E+00  0.250000E-02
     1        198     2     2  0.495000E+00  0.495000E+00  0.250000E-02
     1        198     2     2  0.495000E+00  0.495000E+00  0.250000E-02
     1        198     2     2  0.495000E+00  0.495000E+00  0.250000E-02
     1        198     2     2  0.495000E+00  0.495000E+00  0.250000E-02
     1        198     2     2  0.495000E+00  0.495000E+00  0.250000E-02
     1        199     1     2  0.497500E+00  0.497500E+00  0.250000E-02
     1        199     2     2  0.497500E+00  0.497500E+00  0.250000E-02
     1        199     2     2  0.497500E+00  0.497500E+00  0.250000E-02
     1        199     2     2  0.497500E+00  0.497500E+00  0.250000E-02
     1        200     1     2  0.500000E+00  0.500000E+00  0.250000E-02
     1        200     2     2  0.500000E+00  0.500000E+00  0.250000E-02
     1        200     2     2  0.500000E+00  0.500000E+00  0.250000E-02
     1        200     2     2  0.500000E+00  0.500000E+00  0.250000E-02
     1        200     2     2  0.500000E+00  0.500000E+00  0.250000E-02
