**
**   Structure: part 1 of cantilever beam.
**   
**
*INCLUDE, INPUT=/home/alextru/Desktop/Master/Thesis/test/Calculix1/Calculix1Mesh/all.msh
*INCLUDE, INPUT=/home/alextru/Desktop/Master/Thesis/test/Calculix1/Calculix1Mesh/fix1_beam.nam
*INCLUDE, INPUT=/home/alextru/Desktop/Master/Thesis/test/Calculix1/Calculix1Mesh/interface_beam.nam
*BOUNDARY
FIX, 1
*BOUNDARY
FIX, 2
*BOUNDARY
FIX, 3
*BOUNDARY
Nsurface, 1, 3
*NSET,NSET=Nctrl
222, 228, 234, 240, 246, 252
*MATERIAL,NAME=EL
*ELASTIC
210000.0,   .3
*DENSITY
 7.8E-09
*SOLID SECTION,ELSET=Eall,MATERIAL=EL
**INITIAL CONDITIONS, TYPE
**Nall, 0.01
*AMPLITUDE, NAME=A1
0., 1., 
.01, 0.,
5., 0.
*STEP, INC=1000000
**CONTROLS, PARAMETERS=FIELD
**0.00000005, .0000001
*DYNAMIC,DIRECT
1E-2, 0.5, 1E-2, 1E-2
*CLOAD
Nsurface, 1, 0.
Nsurface, 2, 0. 
Nsurface, 3, 0.
*CLOAD, AMPLITUDE=A1
117, 2, -.1
*NODE FILE
U
*NODE PRINT,NSET=Nall
U,RF
**EL PRINT,ELSET=Eall
**S
*END STEP
