**
**   Structure: cantilever beam.
**
**
*INCLUDE, INPUT=CalculixMesh/all.msh
*INCLUDE, INPUT=CalculixMesh/fix1_beam.nam
*BOUNDARY
FIX, 1
*BOUNDARY
FIX, 2
*BOUNDARY
FIX, 3
*NSET,NSET=Nctrl
222, 228, 234, 240, 246, 252, 255, 258, 261
*NSET,NSET=Nload
185, 186, 187, 188, 189
*MATERIAL,NAME=EL
*ELASTIC
 210000.0,        .3
*DENSITY
7.8E-9
*SOLID SECTION,ELSET=Eall,MATERIAL=EL
*AMPLITUDE, NAME=A1
0., 1.,
.01, 0.,
5., 0.
*STEP, INC=10000, NLGEOM
**CONTROLS, PARAMETERS=FIELD
**0.00000005, .0000001
*DYNAMIC
1E-3, .1, 1E-3, 1E-3
*CLOAD, AMPLITUDE=A1
Nload, 2, -0.001
117, 2, -0.001
*NODE FILE
U
*NODE PRINT,NSET=Nall
U,RF
*END STEP
