**
**   Structure: part 1 of cantilever beam.
**   
**
*INCLUDE, INPUT=/home/alextru/Desktop/Master/Thesis/L-NL_test/Calculix1/Calculix1Mesh/all3.msh
*INCLUDE, INPUT=/home/alextru/Desktop/Master/Thesis/L-NL_test/Calculix1/Calculix1Mesh/fix3.nam
*INCLUDE, INPUT=/home/alextru/Desktop/Master/Thesis/L-NL_test/Calculix1/Calculix1Mesh/interface3.nam
*BOUNDARY
Nfix, 1
*BOUNDARY
Nfix, 2
*BOUNDARY
Nfix, 3
*BOUNDARY
Nsurface, 1, 3
*MATERIAL,NAME=EL
*ELASTIC
 210000.0,        .3
**  70000.0,        .33
*DENSITY
7.8E-9
**2.7E-9
*SOLID SECTION,ELSET=Eall,MATERIAL=EL
*AMPLITUDE, NAME=A1
0., 1., 
.001, 1.,
.002, 0.,
*STEP, INC=10000000, NLGEOM
*DYNAMIC,DIRECT
1E-3, 0.1, 1E-3, 1E-3
*CLOAD
Nsurface, 1, 0.
Nsurface, 2, 0.
Nsurface, 3, 0.
*NODE FILE
U
*NODE PRINT,NSET=Nall
U,RF
**EL PRINT,ELSET=Eall
**S
*END STEP
