SUMMARY OF JOB INFORMATION
  STEP      INC     ATT  ITRS     TOT TIME     STEP TIME      INC TIME
     1          1     1     3  0.100000E-02  0.100000E-02  0.100000E-02
     1          2     1     3  0.200000E-02  0.200000E-02  0.100000E-02
     1          3     1     3  0.300000E-02  0.300000E-02  0.100000E-02
     1          4     1     3  0.400000E-02  0.400000E-02  0.100000E-02
     1          5     1     3  0.500000E-02  0.500000E-02  0.100000E-02
     1          6     1     3  0.600000E-02  0.600000E-02  0.100000E-02
     1          7     1     3  0.700000E-02  0.700000E-02  0.100000E-02
     1          8     1     3  0.800000E-02  0.800000E-02  0.100000E-02
     1          9     1     2  0.900000E-02  0.900000E-02  0.100000E-02
     1         10     1     2  0.100000E-01  0.100000E-01  0.100000E-02
     1         11     1     2  0.110000E-01  0.110000E-01  0.100000E-02
     1         12     1     2  0.120000E-01  0.120000E-01  0.100000E-02
     1         13     1     3  0.130000E-01  0.130000E-01  0.100000E-02
     1         14     1     3  0.140000E-01  0.140000E-01  0.100000E-02
     1         15     1     3  0.150000E-01  0.150000E-01  0.100000E-02
     1         16     1     3  0.160000E-01  0.160000E-01  0.100000E-02
     1         17     1     3  0.170000E-01  0.170000E-01  0.100000E-02
     1         18     1     3  0.180000E-01  0.180000E-01  0.100000E-02
     1         19     1     3  0.190000E-01  0.190000E-01  0.100000E-02
     1         20     1     3  0.200000E-01  0.200000E-01  0.100000E-02
     1         21     1     3  0.210000E-01  0.210000E-01  0.100000E-02
     1         22     1     3  0.220000E-01  0.220000E-01  0.100000E-02
     1         23     1     3  0.230000E-01  0.230000E-01  0.100000E-02
     1         24     1     3  0.240000E-01  0.240000E-01  0.100000E-02
     1         25     1     3  0.250000E-01  0.250000E-01  0.100000E-02
     1         26     1     3  0.260000E-01  0.260000E-01  0.100000E-02
     1         27     1     3  0.270000E-01  0.270000E-01  0.100000E-02
     1         28     1     3  0.280000E-01  0.280000E-01  0.100000E-02
     1         29     1     3  0.290000E-01  0.290000E-01  0.100000E-02
     1         30     1     3  0.300000E-01  0.300000E-01  0.100000E-02
     1         31     1     3  0.310000E-01  0.310000E-01  0.100000E-02
     1         32     1     3  0.320000E-01  0.320000E-01  0.100000E-02
     1         33     1     3  0.330000E-01  0.330000E-01  0.100000E-02
     1         34     1     3  0.340000E-01  0.340000E-01  0.100000E-02
     1         35     1     3  0.350000E-01  0.350000E-01  0.100000E-02
     1         36     1     2  0.360000E-01  0.360000E-01  0.100000E-02
     1         37     1     2  0.370000E-01  0.370000E-01  0.100000E-02
     1         38     1     2  0.380000E-01  0.380000E-01  0.100000E-02
     1         39     1     2  0.390000E-01  0.390000E-01  0.100000E-02
     1         40     1     2  0.400000E-01  0.400000E-01  0.100000E-02
     1         41     1     2  0.410000E-01  0.410000E-01  0.100000E-02
     1         42     1     2  0.420000E-01  0.420000E-01  0.100000E-02
     1         43     1     2  0.430000E-01  0.430000E-01  0.100000E-02
     1         44     1     2  0.440000E-01  0.440000E-01  0.100000E-02
     1         45     1     2  0.450000E-01  0.450000E-01  0.100000E-02
     1         46     1     2  0.460000E-01  0.460000E-01  0.100000E-02
     1         47     1     2  0.470000E-01  0.470000E-01  0.100000E-02
     1         48     1     2  0.480000E-01  0.480000E-01  0.100000E-02
     1         49     1     2  0.490000E-01  0.490000E-01  0.100000E-02
     1         50     1     2  0.500000E-01  0.500000E-01  0.100000E-02
     1         51     1     2  0.510000E-01  0.510000E-01  0.100000E-02
     1         52     1     2  0.520000E-01  0.520000E-01  0.100000E-02
     1         53     1     2  0.530000E-01  0.530000E-01  0.100000E-02
     1         54     1     2  0.540000E-01  0.540000E-01  0.100000E-02
     1         55     1     2  0.550000E-01  0.550000E-01  0.100000E-02
     1         56     1     2  0.560000E-01  0.560000E-01  0.100000E-02
     1         57     1     2  0.570000E-01  0.570000E-01  0.100000E-02
     1         58     1     2  0.580000E-01  0.580000E-01  0.100000E-02
     1         59     1     2  0.590000E-01  0.590000E-01  0.100000E-02
     1         60     1     2  0.600000E-01  0.600000E-01  0.100000E-02
     1         61     1     2  0.610000E-01  0.610000E-01  0.100000E-02
     1         62     1     2  0.620000E-01  0.620000E-01  0.100000E-02
     1         63     1     2  0.630000E-01  0.630000E-01  0.100000E-02
     1         64     1     2  0.640000E-01  0.640000E-01  0.100000E-02
     1         65     1     2  0.650000E-01  0.650000E-01  0.100000E-02
     1         66     1     2  0.660000E-01  0.660000E-01  0.100000E-02
     1         67     1     2  0.670000E-01  0.670000E-01  0.100000E-02
     1         68     1     2  0.680000E-01  0.680000E-01  0.100000E-02
     1         69     1     2  0.690000E-01  0.690000E-01  0.100000E-02
     1         70     1     2  0.700000E-01  0.700000E-01  0.100000E-02
     1         71     1     2  0.710000E-01  0.710000E-01  0.100000E-02
     1         72     1     2  0.720000E-01  0.720000E-01  0.100000E-02
     1         73     1     2  0.730000E-01  0.730000E-01  0.100000E-02
     1         74     1     2  0.740000E-01  0.740000E-01  0.100000E-02
     1         75     1     2  0.750000E-01  0.750000E-01  0.100000E-02
     1         76     1     2  0.760000E-01  0.760000E-01  0.100000E-02
     1         77     1     2  0.770000E-01  0.770000E-01  0.100000E-02
     1         78     1     2  0.780000E-01  0.780000E-01  0.100000E-02
     1         79     1     2  0.790000E-01  0.790000E-01  0.100000E-02
     1         80     1     2  0.800000E-01  0.800000E-01  0.100000E-02
     1         81     1     2  0.810000E-01  0.810000E-01  0.100000E-02
     1         82     1     2  0.820000E-01  0.820000E-01  0.100000E-02
     1         83     1     2  0.830000E-01  0.830000E-01  0.100000E-02
     1         84     1     2  0.840000E-01  0.840000E-01  0.100000E-02
     1         85     1     2  0.850000E-01  0.850000E-01  0.100000E-02
     1         86     1     2  0.860000E-01  0.860000E-01  0.100000E-02
     1         87     1     2  0.870000E-01  0.870000E-01  0.100000E-02
     1         88     1     2  0.880000E-01  0.880000E-01  0.100000E-02
     1         89     1     2  0.890000E-01  0.890000E-01  0.100000E-02
     1         90     1     2  0.900000E-01  0.900000E-01  0.100000E-02
     1         91     1     2  0.910000E-01  0.910000E-01  0.100000E-02
     1         92     1     2  0.920000E-01  0.920000E-01  0.100000E-02
     1         93     1     2  0.930000E-01  0.930000E-01  0.100000E-02
     1         94     1     2  0.940000E-01  0.940000E-01  0.100000E-02
     1         95     1     2  0.950000E-01  0.950000E-01  0.100000E-02
     1         96     1     2  0.960000E-01  0.960000E-01  0.100000E-02
     1         97     1     2  0.970000E-01  0.970000E-01  0.100000E-02
     1         98     1     2  0.980000E-01  0.980000E-01  0.100000E-02
     1         99     1     2  0.990000E-01  0.990000E-01  0.100000E-02
     1        100     1     2  0.100000E+00  0.100000E+00  0.100000E-02
