SUMMARY OF JOB INFORMATION
  STEP      INC     ATT  ITRS     TOT TIME     STEP TIME      INC TIME
     1          1     1     2  0.400000E-02  0.400000E-02  0.400000E-02
     1          1     2     2  0.400000E-02  0.400000E-02  0.400000E-02
     1          1     2     2  0.400000E-02  0.400000E-02  0.400000E-02
     1          1     2     2  0.400000E-02  0.400000E-02  0.400000E-02
     1          1     2     2  0.400000E-02  0.400000E-02  0.400000E-02
     1          1     2     2  0.400000E-02  0.400000E-02  0.400000E-02
     1          1     2     2  0.400000E-02  0.400000E-02  0.400000E-02
     1          1     2     2  0.400000E-02  0.400000E-02  0.400000E-02
     1          1     2     2  0.400000E-02  0.400000E-02  0.400000E-02
     1          1     2     2  0.400000E-02  0.400000E-02  0.400000E-02
     1          1     2     2  0.400000E-02  0.400000E-02  0.400000E-02
     1          1     2     2  0.400000E-02  0.400000E-02  0.400000E-02
     1          1     2     2  0.400000E-02  0.400000E-02  0.400000E-02
     1          1     2     2  0.400000E-02  0.400000E-02  0.400000E-02
     1          1     2     2  0.400000E-02  0.400000E-02  0.400000E-02
     1          1     2     2  0.400000E-02  0.400000E-02  0.400000E-02
     1          1     2     2  0.400000E-02  0.400000E-02  0.400000E-02
     1          1     2     2  0.400000E-02  0.400000E-02  0.400000E-02
     1          1     2     2  0.400000E-02  0.400000E-02  0.400000E-02
     1          1     2     2  0.400000E-02  0.400000E-02  0.400000E-02
     1          1     2     2  0.400000E-02  0.400000E-02  0.400000E-02
     1          1     2     2  0.400000E-02  0.400000E-02  0.400000E-02
     1          1     2     2  0.400000E-02  0.400000E-02  0.400000E-02
     1          1     2     2  0.400000E-02  0.400000E-02  0.400000E-02
     1          1     2     2  0.400000E-02  0.400000E-02  0.400000E-02
     1          1     2     2  0.400000E-02  0.400000E-02  0.400000E-02
     1          1     2     2  0.400000E-02  0.400000E-02  0.400000E-02
     1          1     2     2  0.400000E-02  0.400000E-02  0.400000E-02
     1          1     2     2  0.400000E-02  0.400000E-02  0.400000E-02
     1          1     2     2  0.400000E-02  0.400000E-02  0.400000E-02
     1          2     1     2  0.800000E-02  0.800000E-02  0.400000E-02
     1          2     2     2  0.800000E-02  0.800000E-02  0.400000E-02
     1          2     2     2  0.800000E-02  0.800000E-02  0.400000E-02
     1          2     2     2  0.800000E-02  0.800000E-02  0.400000E-02
     1          3     1     2  0.120000E-01  0.120000E-01  0.400000E-02
     1          3     2     2  0.120000E-01  0.120000E-01  0.400000E-02
     1          4     1     2  0.160000E-01  0.160000E-01  0.400000E-02
     1          4     2     2  0.160000E-01  0.160000E-01  0.400000E-02
     1          4     2     2  0.160000E-01  0.160000E-01  0.400000E-02
     1          5     1     2  0.200000E-01  0.200000E-01  0.400000E-02
     1          5     2     2  0.200000E-01  0.200000E-01  0.400000E-02
     1          5     2     2  0.200000E-01  0.200000E-01  0.400000E-02
     1          5     2     2  0.200000E-01  0.200000E-01  0.400000E-02
     1          5     2     2  0.200000E-01  0.200000E-01  0.400000E-02
     1          6     1     2  0.240000E-01  0.240000E-01  0.400000E-02
     1          6     2     2  0.240000E-01  0.240000E-01  0.400000E-02
     1          7     1     2  0.280000E-01  0.280000E-01  0.400000E-02
     1          7     2     2  0.280000E-01  0.280000E-01  0.400000E-02
     1          7     2     2  0.280000E-01  0.280000E-01  0.400000E-02
     1          7     2     2  0.280000E-01  0.280000E-01  0.400000E-02
     1          7     2     2  0.280000E-01  0.280000E-01  0.400000E-02
     1          8     1     2  0.320000E-01  0.320000E-01  0.400000E-02
     1          8     2     2  0.320000E-01  0.320000E-01  0.400000E-02
     1          9     1     2  0.360000E-01  0.360000E-01  0.400000E-02
     1          9     2     2  0.360000E-01  0.360000E-01  0.400000E-02
     1          9     2     2  0.360000E-01  0.360000E-01  0.400000E-02
     1          9     2     2  0.360000E-01  0.360000E-01  0.400000E-02
     1          9     2     2  0.360000E-01  0.360000E-01  0.400000E-02
     1          9     2     2  0.360000E-01  0.360000E-01  0.400000E-02
     1          9     2     2  0.360000E-01  0.360000E-01  0.400000E-02
     1          9     2     2  0.360000E-01  0.360000E-01  0.400000E-02
     1          9     2     2  0.360000E-01  0.360000E-01  0.400000E-02
     1          9     2     2  0.360000E-01  0.360000E-01  0.400000E-02
     1          9     2     2  0.360000E-01  0.360000E-01  0.400000E-02
     1          9     2     2  0.360000E-01  0.360000E-01  0.400000E-02
     1          9     2     2  0.360000E-01  0.360000E-01  0.400000E-02
     1          9     2     2  0.360000E-01  0.360000E-01  0.400000E-02
     1          9     2     2  0.360000E-01  0.360000E-01  0.400000E-02
     1          9     2     2  0.360000E-01  0.360000E-01  0.400000E-02
     1          9     2     2  0.360000E-01  0.360000E-01  0.400000E-02
     1          9     2     2  0.360000E-01  0.360000E-01  0.400000E-02
     1          9     2     2  0.360000E-01  0.360000E-01  0.400000E-02
     1         10     1     2  0.400000E-01  0.400000E-01  0.400000E-02
     1         10     2     2  0.400000E-01  0.400000E-01  0.400000E-02
     1         10     2     2  0.400000E-01  0.400000E-01  0.400000E-02
     1         10     2     2  0.400000E-01  0.400000E-01  0.400000E-02
     1         10     2     2  0.400000E-01  0.400000E-01  0.400000E-02
     1         11     1     2  0.440000E-01  0.440000E-01  0.400000E-02
     1         11     2     2  0.440000E-01  0.440000E-01  0.400000E-02
     1         12     1     2  0.480000E-01  0.480000E-01  0.400000E-02
     1         12     2     2  0.480000E-01  0.480000E-01  0.400000E-02
     1         12     2     2  0.480000E-01  0.480000E-01  0.400000E-02
     1         12     2     2  0.480000E-01  0.480000E-01  0.400000E-02
     1         12     2     2  0.480000E-01  0.480000E-01  0.400000E-02
     1         12     2     2  0.480000E-01  0.480000E-01  0.400000E-02
     1         12     2     2  0.480000E-01  0.480000E-01  0.400000E-02
     1         12     2     2  0.480000E-01  0.480000E-01  0.400000E-02
     1         12     2     2  0.480000E-01  0.480000E-01  0.400000E-02
     1         12     2     2  0.480000E-01  0.480000E-01  0.400000E-02
     1         12     2     2  0.480000E-01  0.480000E-01  0.400000E-02
     1         12     2     2  0.480000E-01  0.480000E-01  0.400000E-02
     1         13     1     2  0.520000E-01  0.520000E-01  0.400000E-02
     1         13     2     2  0.520000E-01  0.520000E-01  0.400000E-02
     1         13     2     2  0.520000E-01  0.520000E-01  0.400000E-02
     1         14     1     2  0.560000E-01  0.560000E-01  0.400000E-02
     1         14     2     2  0.560000E-01  0.560000E-01  0.400000E-02
     1         14     2     2  0.560000E-01  0.560000E-01  0.400000E-02
     1         15     1     2  0.600000E-01  0.600000E-01  0.400000E-02
     1         15     2     2  0.600000E-01  0.600000E-01  0.400000E-02
     1         16     1     2  0.640000E-01  0.640000E-01  0.400000E-02
     1         16     2     2  0.640000E-01  0.640000E-01  0.400000E-02
     1         16     2     2  0.640000E-01  0.640000E-01  0.400000E-02
     1         17     1     2  0.680000E-01  0.680000E-01  0.400000E-02
     1         17     2     2  0.680000E-01  0.680000E-01  0.400000E-02
     1         18     1     2  0.720000E-01  0.720000E-01  0.400000E-02
     1         18     2     2  0.720000E-01  0.720000E-01  0.400000E-02
     1         18     2     2  0.720000E-01  0.720000E-01  0.400000E-02
     1         19     1     2  0.760000E-01  0.760000E-01  0.400000E-02
     1         19     2     2  0.760000E-01  0.760000E-01  0.400000E-02
     1         19     2     2  0.760000E-01  0.760000E-01  0.400000E-02
     1         20     1     2  0.800000E-01  0.800000E-01  0.400000E-02
     1         20     2     2  0.800000E-01  0.800000E-01  0.400000E-02
     1         20     2     2  0.800000E-01  0.800000E-01  0.400000E-02
     1         20     2     2  0.800000E-01  0.800000E-01  0.400000E-02
     1         20     2     2  0.800000E-01  0.800000E-01  0.400000E-02
     1         20     2     2  0.800000E-01  0.800000E-01  0.400000E-02
     1         20     2     2  0.800000E-01  0.800000E-01  0.400000E-02
     1         21     1     2  0.840000E-01  0.840000E-01  0.400000E-02
     1         21     2     2  0.840000E-01  0.840000E-01  0.400000E-02
     1         21     2     2  0.840000E-01  0.840000E-01  0.400000E-02
     1         21     2     2  0.840000E-01  0.840000E-01  0.400000E-02
     1         21     2     2  0.840000E-01  0.840000E-01  0.400000E-02
     1         21     2     2  0.840000E-01  0.840000E-01  0.400000E-02
     1         21     2     2  0.840000E-01  0.840000E-01  0.400000E-02
     1         21     2     2  0.840000E-01  0.840000E-01  0.400000E-02
     1         21     2     2  0.840000E-01  0.840000E-01  0.400000E-02
     1         21     2     2  0.840000E-01  0.840000E-01  0.400000E-02
     1         21     2     2  0.840000E-01  0.840000E-01  0.400000E-02
     1         22     1     2  0.880000E-01  0.880000E-01  0.400000E-02
     1         22     2     2  0.880000E-01  0.880000E-01  0.400000E-02
     1         22     2     2  0.880000E-01  0.880000E-01  0.400000E-02
     1         22     2     2  0.880000E-01  0.880000E-01  0.400000E-02
     1         22     2     2  0.880000E-01  0.880000E-01  0.400000E-02
     1         23     1     2  0.920000E-01  0.920000E-01  0.400000E-02
     1         23     2     2  0.920000E-01  0.920000E-01  0.400000E-02
     1         23     2     2  0.920000E-01  0.920000E-01  0.400000E-02
     1         23     2     2  0.920000E-01  0.920000E-01  0.400000E-02
     1         23     2     2  0.920000E-01  0.920000E-01  0.400000E-02
     1         23     2     2  0.920000E-01  0.920000E-01  0.400000E-02
     1         23     2     2  0.920000E-01  0.920000E-01  0.400000E-02
     1         23     2     2  0.920000E-01  0.920000E-01  0.400000E-02
     1         24     1     2  0.960000E-01  0.960000E-01  0.400000E-02
     1         24     2     2  0.960000E-01  0.960000E-01  0.400000E-02
     1         24     2     2  0.960000E-01  0.960000E-01  0.400000E-02
     1         25     1     2  0.100000E+00  0.100000E+00  0.400000E-02
     1         25     2     2  0.100000E+00  0.100000E+00  0.400000E-02
     1         25     2     2  0.100000E+00  0.100000E+00  0.400000E-02
     1         25     2     2  0.100000E+00  0.100000E+00  0.400000E-02
     1         25     2     2  0.100000E+00  0.100000E+00  0.400000E-02
     1         25     2     2  0.100000E+00  0.100000E+00  0.400000E-02
     1         25     2     2  0.100000E+00  0.100000E+00  0.400000E-02
     1         25     2     2  0.100000E+00  0.100000E+00  0.400000E-02
     1         25     2     2  0.100000E+00  0.100000E+00  0.400000E-02
     1         26     1     2  0.104000E+00  0.104000E+00  0.400000E-02
     1         26     2     2  0.104000E+00  0.104000E+00  0.400000E-02
     1         26     2     2  0.104000E+00  0.104000E+00  0.400000E-02
     1         26     2     2  0.104000E+00  0.104000E+00  0.400000E-02
     1         27     1     2  0.108000E+00  0.108000E+00  0.400000E-02
     1         27     2     2  0.108000E+00  0.108000E+00  0.400000E-02
     1         27     2     2  0.108000E+00  0.108000E+00  0.400000E-02
     1         28     1     2  0.112000E+00  0.112000E+00  0.400000E-02
     1         28     2     2  0.112000E+00  0.112000E+00  0.400000E-02
     1         28     2     2  0.112000E+00  0.112000E+00  0.400000E-02
     1         29     1     2  0.116000E+00  0.116000E+00  0.400000E-02
     1         29     2     2  0.116000E+00  0.116000E+00  0.400000E-02
     1         29     2     2  0.116000E+00  0.116000E+00  0.400000E-02
     1         29     2     2  0.116000E+00  0.116000E+00  0.400000E-02
     1         30     1     2  0.120000E+00  0.120000E+00  0.400000E-02
     1         30     2     2  0.120000E+00  0.120000E+00  0.400000E-02
     1         30     2     2  0.120000E+00  0.120000E+00  0.400000E-02
     1         31     1     2  0.124000E+00  0.124000E+00  0.400000E-02
     1         31     2     2  0.124000E+00  0.124000E+00  0.400000E-02
     1         31     2     2  0.124000E+00  0.124000E+00  0.400000E-02
     1         31     2     2  0.124000E+00  0.124000E+00  0.400000E-02
     1         31     2     2  0.124000E+00  0.124000E+00  0.400000E-02
     1         31     2     2  0.124000E+00  0.124000E+00  0.400000E-02
     1         32     1     2  0.128000E+00  0.128000E+00  0.400000E-02
     1         32     2     2  0.128000E+00  0.128000E+00  0.400000E-02
     1         32     2     2  0.128000E+00  0.128000E+00  0.400000E-02
     1         32     2     2  0.128000E+00  0.128000E+00  0.400000E-02
     1         33     1     2  0.132000E+00  0.132000E+00  0.400000E-02
     1         33     2     2  0.132000E+00  0.132000E+00  0.400000E-02
     1         33     2     2  0.132000E+00  0.132000E+00  0.400000E-02
     1         33     2     2  0.132000E+00  0.132000E+00  0.400000E-02
     1         33     2     2  0.132000E+00  0.132000E+00  0.400000E-02
     1         33     2     2  0.132000E+00  0.132000E+00  0.400000E-02
     1         34     1     2  0.136000E+00  0.136000E+00  0.400000E-02
     1         34     2     2  0.136000E+00  0.136000E+00  0.400000E-02
     1         34     2     2  0.136000E+00  0.136000E+00  0.400000E-02
     1         34     2     2  0.136000E+00  0.136000E+00  0.400000E-02
     1         34     2     2  0.136000E+00  0.136000E+00  0.400000E-02
     1         34     2     2  0.136000E+00  0.136000E+00  0.400000E-02
     1         35     1     2  0.140000E+00  0.140000E+00  0.400000E-02
     1         35     2     2  0.140000E+00  0.140000E+00  0.400000E-02
     1         35     2     2  0.140000E+00  0.140000E+00  0.400000E-02
     1         35     2     2  0.140000E+00  0.140000E+00  0.400000E-02
     1         35     2     2  0.140000E+00  0.140000E+00  0.400000E-02
     1         36     1     2  0.144000E+00  0.144000E+00  0.400000E-02
     1         36     2     2  0.144000E+00  0.144000E+00  0.400000E-02
     1         36     2     2  0.144000E+00  0.144000E+00  0.400000E-02
     1         36     2     2  0.144000E+00  0.144000E+00  0.400000E-02
     1         36     2     2  0.144000E+00  0.144000E+00  0.400000E-02
     1         36     2     2  0.144000E+00  0.144000E+00  0.400000E-02
     1         36     2     2  0.144000E+00  0.144000E+00  0.400000E-02
     1         36     2     2  0.144000E+00  0.144000E+00  0.400000E-02
     1         37     1     2  0.148000E+00  0.148000E+00  0.400000E-02
     1         37     2     2  0.148000E+00  0.148000E+00  0.400000E-02
     1         37     2     2  0.148000E+00  0.148000E+00  0.400000E-02
     1         37     2     2  0.148000E+00  0.148000E+00  0.400000E-02
     1         37     2     2  0.148000E+00  0.148000E+00  0.400000E-02
     1         37     2     2  0.148000E+00  0.148000E+00  0.400000E-02
     1         37     2     2  0.148000E+00  0.148000E+00  0.400000E-02
     1         37     2     2  0.148000E+00  0.148000E+00  0.400000E-02
     1         37     2     2  0.148000E+00  0.148000E+00  0.400000E-02
     1         38     1     2  0.152000E+00  0.152000E+00  0.400000E-02
     1         38     2     2  0.152000E+00  0.152000E+00  0.400000E-02
     1         38     2     2  0.152000E+00  0.152000E+00  0.400000E-02
     1         38     2     2  0.152000E+00  0.152000E+00  0.400000E-02
     1         38     2     2  0.152000E+00  0.152000E+00  0.400000E-02
     1         38     2     2  0.152000E+00  0.152000E+00  0.400000E-02
     1         38     2     2  0.152000E+00  0.152000E+00  0.400000E-02
     1         39     1     2  0.156000E+00  0.156000E+00  0.400000E-02
     1         39     2     2  0.156000E+00  0.156000E+00  0.400000E-02
     1         39     2     2  0.156000E+00  0.156000E+00  0.400000E-02
     1         39     2     2  0.156000E+00  0.156000E+00  0.400000E-02
     1         40     1     2  0.160000E+00  0.160000E+00  0.400000E-02
     1         40     2     2  0.160000E+00  0.160000E+00  0.400000E-02
     1         40     2     2  0.160000E+00  0.160000E+00  0.400000E-02
     1         40     2     2  0.160000E+00  0.160000E+00  0.400000E-02
     1         40     2     2  0.160000E+00  0.160000E+00  0.400000E-02
     1         40     2     2  0.160000E+00  0.160000E+00  0.400000E-02
     1         40     2     2  0.160000E+00  0.160000E+00  0.400000E-02
     1         40     2     2  0.160000E+00  0.160000E+00  0.400000E-02
     1         40     2     2  0.160000E+00  0.160000E+00  0.400000E-02
     1         41     1     2  0.164000E+00  0.164000E+00  0.400000E-02
     1         41     2     2  0.164000E+00  0.164000E+00  0.400000E-02
     1         41     2     2  0.164000E+00  0.164000E+00  0.400000E-02
     1         42     1     2  0.168000E+00  0.168000E+00  0.400000E-02
     1         42     2     2  0.168000E+00  0.168000E+00  0.400000E-02
     1         42     2     2  0.168000E+00  0.168000E+00  0.400000E-02
     1         42     2     2  0.168000E+00  0.168000E+00  0.400000E-02
     1         42     2     2  0.168000E+00  0.168000E+00  0.400000E-02
     1         43     1     2  0.172000E+00  0.172000E+00  0.400000E-02
     1         43     2     2  0.172000E+00  0.172000E+00  0.400000E-02
     1         43     2     2  0.172000E+00  0.172000E+00  0.400000E-02
     1         44     1     2  0.176000E+00  0.176000E+00  0.400000E-02
     1         44     2     2  0.176000E+00  0.176000E+00  0.400000E-02
     1         44     2     2  0.176000E+00  0.176000E+00  0.400000E-02
     1         44     2     2  0.176000E+00  0.176000E+00  0.400000E-02
     1         45     1     2  0.180000E+00  0.180000E+00  0.400000E-02
     1         45     2     2  0.180000E+00  0.180000E+00  0.400000E-02
     1         45     2     2  0.180000E+00  0.180000E+00  0.400000E-02
     1         45     2     2  0.180000E+00  0.180000E+00  0.400000E-02
     1         46     1     2  0.184000E+00  0.184000E+00  0.400000E-02
     1         46     2     2  0.184000E+00  0.184000E+00  0.400000E-02
     1         46     2     2  0.184000E+00  0.184000E+00  0.400000E-02
     1         47     1     2  0.188000E+00  0.188000E+00  0.400000E-02
     1         47     2     2  0.188000E+00  0.188000E+00  0.400000E-02
     1         47     2     2  0.188000E+00  0.188000E+00  0.400000E-02
     1         47     2     2  0.188000E+00  0.188000E+00  0.400000E-02
     1         47     2     2  0.188000E+00  0.188000E+00  0.400000E-02
     1         47     2     2  0.188000E+00  0.188000E+00  0.400000E-02
     1         47     2     2  0.188000E+00  0.188000E+00  0.400000E-02
     1         47     2     2  0.188000E+00  0.188000E+00  0.400000E-02
     1         48     1     2  0.192000E+00  0.192000E+00  0.400000E-02
     1         48     2     2  0.192000E+00  0.192000E+00  0.400000E-02
     1         48     2     2  0.192000E+00  0.192000E+00  0.400000E-02
     1         48     2     2  0.192000E+00  0.192000E+00  0.400000E-02
     1         48     2     2  0.192000E+00  0.192000E+00  0.400000E-02
     1         48     2     2  0.192000E+00  0.192000E+00  0.400000E-02
     1         48     2     2  0.192000E+00  0.192000E+00  0.400000E-02
     1         48     2     2  0.192000E+00  0.192000E+00  0.400000E-02
     1         48     2     2  0.192000E+00  0.192000E+00  0.400000E-02
     1         48     2     2  0.192000E+00  0.192000E+00  0.400000E-02
     1         48     2     2  0.192000E+00  0.192000E+00  0.400000E-02
     1         48     2     2  0.192000E+00  0.192000E+00  0.400000E-02
     1         48     2     2  0.192000E+00  0.192000E+00  0.400000E-02
     1         48     2     2  0.192000E+00  0.192000E+00  0.400000E-02
     1         49     1     2  0.196000E+00  0.196000E+00  0.400000E-02
     1         49     2     2  0.196000E+00  0.196000E+00  0.400000E-02
     1         50     1     2  0.200000E+00  0.200000E+00  0.400000E-02
     1         50     2     2  0.200000E+00  0.200000E+00  0.400000E-02
     1         50     2     2  0.200000E+00  0.200000E+00  0.400000E-02
     1         50     2     2  0.200000E+00  0.200000E+00  0.400000E-02
     1         51     1     2  0.204000E+00  0.204000E+00  0.400000E-02
     1         51     2     2  0.204000E+00  0.204000E+00  0.400000E-02
     1         52     1     2  0.208000E+00  0.208000E+00  0.400000E-02
     1         52     2     2  0.208000E+00  0.208000E+00  0.400000E-02
     1         52     2     2  0.208000E+00  0.208000E+00  0.400000E-02
     1         52     2     2  0.208000E+00  0.208000E+00  0.400000E-02
     1         52     2     2  0.208000E+00  0.208000E+00  0.400000E-02
     1         52     2     2  0.208000E+00  0.208000E+00  0.400000E-02
     1         52     2     2  0.208000E+00  0.208000E+00  0.400000E-02
     1         52     2     2  0.208000E+00  0.208000E+00  0.400000E-02
     1         52     2     2  0.208000E+00  0.208000E+00  0.400000E-02
     1         53     1     2  0.212000E+00  0.212000E+00  0.400000E-02
     1         53     2     2  0.212000E+00  0.212000E+00  0.400000E-02
     1         54     1     2  0.216000E+00  0.216000E+00  0.400000E-02
     1         54     2     2  0.216000E+00  0.216000E+00  0.400000E-02
     1         54     2     2  0.216000E+00  0.216000E+00  0.400000E-02
     1         54     2     2  0.216000E+00  0.216000E+00  0.400000E-02
     1         54     2     2  0.216000E+00  0.216000E+00  0.400000E-02
     1         55     1     2  0.220000E+00  0.220000E+00  0.400000E-02
     1         55     2     2  0.220000E+00  0.220000E+00  0.400000E-02
     1         56     1     2  0.224000E+00  0.224000E+00  0.400000E-02
     1         56     2     2  0.224000E+00  0.224000E+00  0.400000E-02
     1         56     2     2  0.224000E+00  0.224000E+00  0.400000E-02
     1         56     2     2  0.224000E+00  0.224000E+00  0.400000E-02
     1         56     2     2  0.224000E+00  0.224000E+00  0.400000E-02
     1         56     2     2  0.224000E+00  0.224000E+00  0.400000E-02
     1         56     2     2  0.224000E+00  0.224000E+00  0.400000E-02
     1         56     2     2  0.224000E+00  0.224000E+00  0.400000E-02
     1         56     2     2  0.224000E+00  0.224000E+00  0.400000E-02
     1         56     2     2  0.224000E+00  0.224000E+00  0.400000E-02
     1         56     2     2  0.224000E+00  0.224000E+00  0.400000E-02
     1         57     1     2  0.228000E+00  0.228000E+00  0.400000E-02
     1         57     2     2  0.228000E+00  0.228000E+00  0.400000E-02
     1         57     2     2  0.228000E+00  0.228000E+00  0.400000E-02
     1         57     2     2  0.228000E+00  0.228000E+00  0.400000E-02
     1         58     1     2  0.232000E+00  0.232000E+00  0.400000E-02
     1         58     2     2  0.232000E+00  0.232000E+00  0.400000E-02
     1         58     2     2  0.232000E+00  0.232000E+00  0.400000E-02
     1         58     2     2  0.232000E+00  0.232000E+00  0.400000E-02
     1         58     2     2  0.232000E+00  0.232000E+00  0.400000E-02
     1         58     2     2  0.232000E+00  0.232000E+00  0.400000E-02
     1         58     2     2  0.232000E+00  0.232000E+00  0.400000E-02
     1         58     2     2  0.232000E+00  0.232000E+00  0.400000E-02
     1         59     1     2  0.236000E+00  0.236000E+00  0.400000E-02
     1         59     2     2  0.236000E+00  0.236000E+00  0.400000E-02
     1         59     2     2  0.236000E+00  0.236000E+00  0.400000E-02
     1         59     2     2  0.236000E+00  0.236000E+00  0.400000E-02
     1         59     2     2  0.236000E+00  0.236000E+00  0.400000E-02
     1         60     1     2  0.240000E+00  0.240000E+00  0.400000E-02
     1         60     2     2  0.240000E+00  0.240000E+00  0.400000E-02
     1         60     2     2  0.240000E+00  0.240000E+00  0.400000E-02
     1         60     2     2  0.240000E+00  0.240000E+00  0.400000E-02
     1         60     2     2  0.240000E+00  0.240000E+00  0.400000E-02
     1         60     2     2  0.240000E+00  0.240000E+00  0.400000E-02
     1         60     2     2  0.240000E+00  0.240000E+00  0.400000E-02
     1         61     1     2  0.244000E+00  0.244000E+00  0.400000E-02
     1         61     2     2  0.244000E+00  0.244000E+00  0.400000E-02
     1         61     2     2  0.244000E+00  0.244000E+00  0.400000E-02
     1         61     2     2  0.244000E+00  0.244000E+00  0.400000E-02
     1         61     2     2  0.244000E+00  0.244000E+00  0.400000E-02
     1         61     2     2  0.244000E+00  0.244000E+00  0.400000E-02
     1         62     1     2  0.248000E+00  0.248000E+00  0.400000E-02
     1         62     2     2  0.248000E+00  0.248000E+00  0.400000E-02
     1         62     2     2  0.248000E+00  0.248000E+00  0.400000E-02
     1         62     2     2  0.248000E+00  0.248000E+00  0.400000E-02
     1         62     2     2  0.248000E+00  0.248000E+00  0.400000E-02
     1         63     1     2  0.252000E+00  0.252000E+00  0.400000E-02
     1         63     2     2  0.252000E+00  0.252000E+00  0.400000E-02
     1         63     2     2  0.252000E+00  0.252000E+00  0.400000E-02
     1         64     1     2  0.256000E+00  0.256000E+00  0.400000E-02
     1         64     2     2  0.256000E+00  0.256000E+00  0.400000E-02
     1         64     2     2  0.256000E+00  0.256000E+00  0.400000E-02
     1         64     2     2  0.256000E+00  0.256000E+00  0.400000E-02
     1         65     1     2  0.260000E+00  0.260000E+00  0.400000E-02
     1         65     2     2  0.260000E+00  0.260000E+00  0.400000E-02
     1         65     2     2  0.260000E+00  0.260000E+00  0.400000E-02
     1         65     2     2  0.260000E+00  0.260000E+00  0.400000E-02
     1         66     1     2  0.264000E+00  0.264000E+00  0.400000E-02
     1         66     2     2  0.264000E+00  0.264000E+00  0.400000E-02
     1         66     2     2  0.264000E+00  0.264000E+00  0.400000E-02
     1         66     2     2  0.264000E+00  0.264000E+00  0.400000E-02
     1         66     2     2  0.264000E+00  0.264000E+00  0.400000E-02
     1         66     2     2  0.264000E+00  0.264000E+00  0.400000E-02
     1         66     2     2  0.264000E+00  0.264000E+00  0.400000E-02
     1         67     1     2  0.268000E+00  0.268000E+00  0.400000E-02
     1         67     2     2  0.268000E+00  0.268000E+00  0.400000E-02
     1         67     2     2  0.268000E+00  0.268000E+00  0.400000E-02
     1         67     2     2  0.268000E+00  0.268000E+00  0.400000E-02
     1         68     1     2  0.272000E+00  0.272000E+00  0.400000E-02
     1         68     2     2  0.272000E+00  0.272000E+00  0.400000E-02
     1         68     2     2  0.272000E+00  0.272000E+00  0.400000E-02
     1         68     2     2  0.272000E+00  0.272000E+00  0.400000E-02
     1         69     1     2  0.276000E+00  0.276000E+00  0.400000E-02
     1         69     2     2  0.276000E+00  0.276000E+00  0.400000E-02
     1         69     2     2  0.276000E+00  0.276000E+00  0.400000E-02
     1         69     2     2  0.276000E+00  0.276000E+00  0.400000E-02
     1         69     2     2  0.276000E+00  0.276000E+00  0.400000E-02
     1         69     2     2  0.276000E+00  0.276000E+00  0.400000E-02
     1         69     2     2  0.276000E+00  0.276000E+00  0.400000E-02
     1         69     2     2  0.276000E+00  0.276000E+00  0.400000E-02
     1         70     1     2  0.280000E+00  0.280000E+00  0.400000E-02
     1         70     2     2  0.280000E+00  0.280000E+00  0.400000E-02
     1         70     2     2  0.280000E+00  0.280000E+00  0.400000E-02
     1         70     2     2  0.280000E+00  0.280000E+00  0.400000E-02
     1         70     2     2  0.280000E+00  0.280000E+00  0.400000E-02
     1         70     2     2  0.280000E+00  0.280000E+00  0.400000E-02
     1         71     1     2  0.284000E+00  0.284000E+00  0.400000E-02
     1         71     2     2  0.284000E+00  0.284000E+00  0.400000E-02
     1         71     2     2  0.284000E+00  0.284000E+00  0.400000E-02
     1         71     2     2  0.284000E+00  0.284000E+00  0.400000E-02
     1         71     2     2  0.284000E+00  0.284000E+00  0.400000E-02
     1         71     2     2  0.284000E+00  0.284000E+00  0.400000E-02
     1         71     2     2  0.284000E+00  0.284000E+00  0.400000E-02
     1         71     2     2  0.284000E+00  0.284000E+00  0.400000E-02
     1         71     2     2  0.284000E+00  0.284000E+00  0.400000E-02
     1         71     2     2  0.284000E+00  0.284000E+00  0.400000E-02
     1         71     2     2  0.284000E+00  0.284000E+00  0.400000E-02
     1         72     1     2  0.288000E+00  0.288000E+00  0.400000E-02
     1         72     2     2  0.288000E+00  0.288000E+00  0.400000E-02
     1         73     1     2  0.292000E+00  0.292000E+00  0.400000E-02
     1         73     2     2  0.292000E+00  0.292000E+00  0.400000E-02
     1         73     2     2  0.292000E+00  0.292000E+00  0.400000E-02
     1         73     2     2  0.292000E+00  0.292000E+00  0.400000E-02
     1         73     2     2  0.292000E+00  0.292000E+00  0.400000E-02
     1         73     2     2  0.292000E+00  0.292000E+00  0.400000E-02
     1         73     2     2  0.292000E+00  0.292000E+00  0.400000E-02
     1         74     1     2  0.296000E+00  0.296000E+00  0.400000E-02
     1         74     2     2  0.296000E+00  0.296000E+00  0.400000E-02
     1         74     2     2  0.296000E+00  0.296000E+00  0.400000E-02
     1         74     2     2  0.296000E+00  0.296000E+00  0.400000E-02
     1         74     2     2  0.296000E+00  0.296000E+00  0.400000E-02
     1         74     2     2  0.296000E+00  0.296000E+00  0.400000E-02
     1         74     2     2  0.296000E+00  0.296000E+00  0.400000E-02
     1         74     2     2  0.296000E+00  0.296000E+00  0.400000E-02
     1         75     1     2  0.300000E+00  0.300000E+00  0.400000E-02
     1         75     2     2  0.300000E+00  0.300000E+00  0.400000E-02
     1         76     1     2  0.304000E+00  0.304000E+00  0.400000E-02
     1         76     2     2  0.304000E+00  0.304000E+00  0.400000E-02
     1         76     2     2  0.304000E+00  0.304000E+00  0.400000E-02
     1         76     2     2  0.304000E+00  0.304000E+00  0.400000E-02
     1         76     2     2  0.304000E+00  0.304000E+00  0.400000E-02
     1         76     2     2  0.304000E+00  0.304000E+00  0.400000E-02
     1         77     1     2  0.308000E+00  0.308000E+00  0.400000E-02
     1         77     2     2  0.308000E+00  0.308000E+00  0.400000E-02
     1         78     1     2  0.312000E+00  0.312000E+00  0.400000E-02
     1         78     2     2  0.312000E+00  0.312000E+00  0.400000E-02
     1         78     2     2  0.312000E+00  0.312000E+00  0.400000E-02
     1         78     2     2  0.312000E+00  0.312000E+00  0.400000E-02
     1         78     2     2  0.312000E+00  0.312000E+00  0.400000E-02
     1         78     2     2  0.312000E+00  0.312000E+00  0.400000E-02
     1         78     2     2  0.312000E+00  0.312000E+00  0.400000E-02
     1         79     1     2  0.316000E+00  0.316000E+00  0.400000E-02
     1         79     2     2  0.316000E+00  0.316000E+00  0.400000E-02
     1         80     1     2  0.320000E+00  0.320000E+00  0.400000E-02
     1         80     2     2  0.320000E+00  0.320000E+00  0.400000E-02
     1         80     2     2  0.320000E+00  0.320000E+00  0.400000E-02
     1         80     2     2  0.320000E+00  0.320000E+00  0.400000E-02
     1         80     2     2  0.320000E+00  0.320000E+00  0.400000E-02
     1         80     2     2  0.320000E+00  0.320000E+00  0.400000E-02
     1         80     2     2  0.320000E+00  0.320000E+00  0.400000E-02
     1         81     1     2  0.324000E+00  0.324000E+00  0.400000E-02
     1         81     2     2  0.324000E+00  0.324000E+00  0.400000E-02
     1         81     2     2  0.324000E+00  0.324000E+00  0.400000E-02
     1         81     2     2  0.324000E+00  0.324000E+00  0.400000E-02
     1         82     1     2  0.328000E+00  0.328000E+00  0.400000E-02
     1         82     2     2  0.328000E+00  0.328000E+00  0.400000E-02
     1         82     2     2  0.328000E+00  0.328000E+00  0.400000E-02
     1         82     2     2  0.328000E+00  0.328000E+00  0.400000E-02
     1         82     2     2  0.328000E+00  0.328000E+00  0.400000E-02
     1         83     1     2  0.332000E+00  0.332000E+00  0.400000E-02
     1         83     2     2  0.332000E+00  0.332000E+00  0.400000E-02
     1         83     2     2  0.332000E+00  0.332000E+00  0.400000E-02
     1         83     2     2  0.332000E+00  0.332000E+00  0.400000E-02
     1         83     2     2  0.332000E+00  0.332000E+00  0.400000E-02
     1         84     1     2  0.336000E+00  0.336000E+00  0.400000E-02
     1         84     2     2  0.336000E+00  0.336000E+00  0.400000E-02
     1         84     2     2  0.336000E+00  0.336000E+00  0.400000E-02
     1         84     2     2  0.336000E+00  0.336000E+00  0.400000E-02
     1         84     2     2  0.336000E+00  0.336000E+00  0.400000E-02
     1         84     2     2  0.336000E+00  0.336000E+00  0.400000E-02
     1         84     2     2  0.336000E+00  0.336000E+00  0.400000E-02
     1         84     2     2  0.336000E+00  0.336000E+00  0.400000E-02
     1         84     2     2  0.336000E+00  0.336000E+00  0.400000E-02
     1         84     2     2  0.336000E+00  0.336000E+00  0.400000E-02
     1         84     2     2  0.336000E+00  0.336000E+00  0.400000E-02
     1         84     2     2  0.336000E+00  0.336000E+00  0.400000E-02
     1         84     2     2  0.336000E+00  0.336000E+00  0.400000E-02
     1         84     2     2  0.336000E+00  0.336000E+00  0.400000E-02
     1         84     2     2  0.336000E+00  0.336000E+00  0.400000E-02
     1         85     1     2  0.340000E+00  0.340000E+00  0.400000E-02
     1         85     2     2  0.340000E+00  0.340000E+00  0.400000E-02
     1         86     1     2  0.344000E+00  0.344000E+00  0.400000E-02
     1         86     2     2  0.344000E+00  0.344000E+00  0.400000E-02
     1         87     1     2  0.348000E+00  0.348000E+00  0.400000E-02
     1         87     2     2  0.348000E+00  0.348000E+00  0.400000E-02
     1         87     2     2  0.348000E+00  0.348000E+00  0.400000E-02
     1         87     2     2  0.348000E+00  0.348000E+00  0.400000E-02
     1         88     1     2  0.352000E+00  0.352000E+00  0.400000E-02
     1         88     2     2  0.352000E+00  0.352000E+00  0.400000E-02
     1         89     1     2  0.356000E+00  0.356000E+00  0.400000E-02
     1         89     2     2  0.356000E+00  0.356000E+00  0.400000E-02
     1         89     2     2  0.356000E+00  0.356000E+00  0.400000E-02
     1         89     2     2  0.356000E+00  0.356000E+00  0.400000E-02
     1         89     2     2  0.356000E+00  0.356000E+00  0.400000E-02
     1         89     2     2  0.356000E+00  0.356000E+00  0.400000E-02
     1         90     1     2  0.360000E+00  0.360000E+00  0.400000E-02
     1         90     2     2  0.360000E+00  0.360000E+00  0.400000E-02
     1         90     2     2  0.360000E+00  0.360000E+00  0.400000E-02
     1         90     2     2  0.360000E+00  0.360000E+00  0.400000E-02
     1         90     2     2  0.360000E+00  0.360000E+00  0.400000E-02
     1         90     2     2  0.360000E+00  0.360000E+00  0.400000E-02
     1         90     2     2  0.360000E+00  0.360000E+00  0.400000E-02
     1         90     2     2  0.360000E+00  0.360000E+00  0.400000E-02
     1         90     2     2  0.360000E+00  0.360000E+00  0.400000E-02
     1         90     2     2  0.360000E+00  0.360000E+00  0.400000E-02
     1         90     2     2  0.360000E+00  0.360000E+00  0.400000E-02
     1         90     2     2  0.360000E+00  0.360000E+00  0.400000E-02
     1         90     2     2  0.360000E+00  0.360000E+00  0.400000E-02
     1         90     2     2  0.360000E+00  0.360000E+00  0.400000E-02
     1         90     2     2  0.360000E+00  0.360000E+00  0.400000E-02
     1         91     1     2  0.364000E+00  0.364000E+00  0.400000E-02
     1         91     2     2  0.364000E+00  0.364000E+00  0.400000E-02
     1         92     1     2  0.368000E+00  0.368000E+00  0.400000E-02
     1         92     2     2  0.368000E+00  0.368000E+00  0.400000E-02
     1         92     2     2  0.368000E+00  0.368000E+00  0.400000E-02
     1         92     2     2  0.368000E+00  0.368000E+00  0.400000E-02
     1         93     1     2  0.372000E+00  0.372000E+00  0.400000E-02
     1         93     2     2  0.372000E+00  0.372000E+00  0.400000E-02
     1         94     1     2  0.376000E+00  0.376000E+00  0.400000E-02
     1         94     2     2  0.376000E+00  0.376000E+00  0.400000E-02
     1         94     2     2  0.376000E+00  0.376000E+00  0.400000E-02
     1         94     2     2  0.376000E+00  0.376000E+00  0.400000E-02
     1         94     2     2  0.376000E+00  0.376000E+00  0.400000E-02
     1         95     1     2  0.380000E+00  0.380000E+00  0.400000E-02
     1         95     2     2  0.380000E+00  0.380000E+00  0.400000E-02
     1         95     2     2  0.380000E+00  0.380000E+00  0.400000E-02
     1         95     2     2  0.380000E+00  0.380000E+00  0.400000E-02
     1         95     2     2  0.380000E+00  0.380000E+00  0.400000E-02
     1         95     2     2  0.380000E+00  0.380000E+00  0.400000E-02
     1         95     2     2  0.380000E+00  0.380000E+00  0.400000E-02
     1         96     1     2  0.384000E+00  0.384000E+00  0.400000E-02
     1         96     2     2  0.384000E+00  0.384000E+00  0.400000E-02
     1         96     2     2  0.384000E+00  0.384000E+00  0.400000E-02
     1         96     2     2  0.384000E+00  0.384000E+00  0.400000E-02
     1         96     2     2  0.384000E+00  0.384000E+00  0.400000E-02
     1         96     2     2  0.384000E+00  0.384000E+00  0.400000E-02
     1         96     2     2  0.384000E+00  0.384000E+00  0.400000E-02
     1         96     2     2  0.384000E+00  0.384000E+00  0.400000E-02
     1         96     2     2  0.384000E+00  0.384000E+00  0.400000E-02
     1         96     2     2  0.384000E+00  0.384000E+00  0.400000E-02
     1         96     2     2  0.384000E+00  0.384000E+00  0.400000E-02
     1         96     2     2  0.384000E+00  0.384000E+00  0.400000E-02
     1         96     2     2  0.384000E+00  0.384000E+00  0.400000E-02
     1         96     2     2  0.384000E+00  0.384000E+00  0.400000E-02
     1         96     2     2  0.384000E+00  0.384000E+00  0.400000E-02
     1         96     2     2  0.384000E+00  0.384000E+00  0.400000E-02
     1         96     2     2  0.384000E+00  0.384000E+00  0.400000E-02
     1         96     2     2  0.384000E+00  0.384000E+00  0.400000E-02
     1         96     2     2  0.384000E+00  0.384000E+00  0.400000E-02
     1         96     2     2  0.384000E+00  0.384000E+00  0.400000E-02
     1         96     2     2  0.384000E+00  0.384000E+00  0.400000E-02
     1         97     1     2  0.388000E+00  0.388000E+00  0.400000E-02
     1         98     1     2  0.392000E+00  0.392000E+00  0.400000E-02
     1         98     2     2  0.392000E+00  0.392000E+00  0.400000E-02
     1         99     1     2  0.396000E+00  0.396000E+00  0.400000E-02
     1        100     1     2  0.400000E+00  0.400000E+00  0.400000E-02
     1        100     2     2  0.400000E+00  0.400000E+00  0.400000E-02
     1        100     2     2  0.400000E+00  0.400000E+00  0.400000E-02
     1        100     2     2  0.400000E+00  0.400000E+00  0.400000E-02
     1        100     2     2  0.400000E+00  0.400000E+00  0.400000E-02
     1        100     2     2  0.400000E+00  0.400000E+00  0.400000E-02
     1        101     1     2  0.404000E+00  0.404000E+00  0.400000E-02
     1        102     1     2  0.408000E+00  0.408000E+00  0.400000E-02
     1        102     2     2  0.408000E+00  0.408000E+00  0.400000E-02
     1        102     2     2  0.408000E+00  0.408000E+00  0.400000E-02
     1        103     1     2  0.412000E+00  0.412000E+00  0.400000E-02
     1        104     1     2  0.416000E+00  0.416000E+00  0.400000E-02
     1        104     2     2  0.416000E+00  0.416000E+00  0.400000E-02
     1        105     1     2  0.420000E+00  0.420000E+00  0.400000E-02
     1        106     1     2  0.424000E+00  0.424000E+00  0.400000E-02
     1        106     2     2  0.424000E+00  0.424000E+00  0.400000E-02
     1        106     2     2  0.424000E+00  0.424000E+00  0.400000E-02
     1        107     1     2  0.428000E+00  0.428000E+00  0.400000E-02
     1        108     1     2  0.432000E+00  0.432000E+00  0.400000E-02
     1        108     2     2  0.432000E+00  0.432000E+00  0.400000E-02
     1        109     1     2  0.436000E+00  0.436000E+00  0.400000E-02
     1        110     1     2  0.440000E+00  0.440000E+00  0.400000E-02
     1        110     2     2  0.440000E+00  0.440000E+00  0.400000E-02
     1        110     2     2  0.440000E+00  0.440000E+00  0.400000E-02
     1        110     2     2  0.440000E+00  0.440000E+00  0.400000E-02
     1        110     2     2  0.440000E+00  0.440000E+00  0.400000E-02
     1        110     2     2  0.440000E+00  0.440000E+00  0.400000E-02
     1        111     1     2  0.444000E+00  0.444000E+00  0.400000E-02
     1        111     2     2  0.444000E+00  0.444000E+00  0.400000E-02
     1        111     2     2  0.444000E+00  0.444000E+00  0.400000E-02
     1        111     2     2  0.444000E+00  0.444000E+00  0.400000E-02
     1        111     2     2  0.444000E+00  0.444000E+00  0.400000E-02
     1        111     2     2  0.444000E+00  0.444000E+00  0.400000E-02
     1        111     2     2  0.444000E+00  0.444000E+00  0.400000E-02
     1        111     2     2  0.444000E+00  0.444000E+00  0.400000E-02
     1        111     2     2  0.444000E+00  0.444000E+00  0.400000E-02
     1        111     2     2  0.444000E+00  0.444000E+00  0.400000E-02
     1        112     1     2  0.448000E+00  0.448000E+00  0.400000E-02
     1        113     1     2  0.452000E+00  0.452000E+00  0.400000E-02
     1        114     1     2  0.456000E+00  0.456000E+00  0.400000E-02
     1        114     2     2  0.456000E+00  0.456000E+00  0.400000E-02
     1        114     2     2  0.456000E+00  0.456000E+00  0.400000E-02
     1        115     1     2  0.460000E+00  0.460000E+00  0.400000E-02
     1        116     1     2  0.464000E+00  0.464000E+00  0.400000E-02
     1        116     2     2  0.464000E+00  0.464000E+00  0.400000E-02
     1        117     1     2  0.468000E+00  0.468000E+00  0.400000E-02
     1        118     1     2  0.472000E+00  0.472000E+00  0.400000E-02
     1        118     2     2  0.472000E+00  0.472000E+00  0.400000E-02
     1        119     1     2  0.476000E+00  0.476000E+00  0.400000E-02
     1        120     1     2  0.480000E+00  0.480000E+00  0.400000E-02
     1        120     2     2  0.480000E+00  0.480000E+00  0.400000E-02
     1        120     2     2  0.480000E+00  0.480000E+00  0.400000E-02
     1        120     2     2  0.480000E+00  0.480000E+00  0.400000E-02
     1        121     1     2  0.484000E+00  0.484000E+00  0.400000E-02
     1        121     2     2  0.484000E+00  0.484000E+00  0.400000E-02
     1        121     2     2  0.484000E+00  0.484000E+00  0.400000E-02
     1        121     2     2  0.484000E+00  0.484000E+00  0.400000E-02
     1        121     2     2  0.484000E+00  0.484000E+00  0.400000E-02
     1        121     2     2  0.484000E+00  0.484000E+00  0.400000E-02
     1        121     2     2  0.484000E+00  0.484000E+00  0.400000E-02
     1        122     1     2  0.488000E+00  0.488000E+00  0.400000E-02
     1        122     2     2  0.488000E+00  0.488000E+00  0.400000E-02
     1        122     2     2  0.488000E+00  0.488000E+00  0.400000E-02
     1        122     2     2  0.488000E+00  0.488000E+00  0.400000E-02
     1        122     2     2  0.488000E+00  0.488000E+00  0.400000E-02
     1        123     1     2  0.492000E+00  0.492000E+00  0.400000E-02
     1        123     2     2  0.492000E+00  0.492000E+00  0.400000E-02
     1        123     2     2  0.492000E+00  0.492000E+00  0.400000E-02
     1        123     2     2  0.492000E+00  0.492000E+00  0.400000E-02
     1        124     1     2  0.496000E+00  0.496000E+00  0.400000E-02
     1        125     1     2  0.500000E+00  0.500000E+00  0.400000E-02
     1        125     2     2  0.500000E+00  0.500000E+00  0.400000E-02
     1        125     2     2  0.500000E+00  0.500000E+00  0.400000E-02
     1        125     2     2  0.500000E+00  0.500000E+00  0.400000E-02
