**
**   Structure: cantilever beam.
**
**
*INCLUDE, INPUT=CalculixMesh/all2.msh
*INCLUDE, INPUT=CalculixMesh/fix2.nam
*BOUNDARY
Nfix, 1
*BOUNDARY
Nfix, 2
*BOUNDARY
Nfix, 3
*NSET,NSET=Nload
928, 961, 963, 930, 895, 933, 935, 940, 951, 918, 955, 970, 922, 937
*MATERIAL,NAME=EL
*ELASTIC
 210000.0,        .3
**  70000.0,        .33
*DENSITY
7.8E-9
**2.7E-9
*SOLID SECTION,ELSET=Eall,MATERIAL=EL
*AMPLITUDE, NAME=A1
0., 1.,
.001, 1.,
.002, 0.
*STEP, INC=10000
*DYNAMIC
1E-3, .1, 1E-3, 1E-3
*CLOAD, AMPLITUDE=A1
Nload, 2, -.0001
*NODE FILE
U
*NODE PRINT,NSET=Nall
U,RF
*END STEP
