**
**   Structure: reinforced pipe. Units: {mm, N, s} 
**
**
*INCLUDE, INPUT=CalculixMesh/all_pipe.msh
*INCLUDE, INPUT=CalculixMesh/fix_pipe.nam
*BOUNDARY
 Nfix, 1, 3
*NSET,NSET=Nload
**tr6 4086, 4088, 4116, 4024, 4021, 3991, 3989, 3992
**tr3 1991, 1992, 1999, 2007, 2008, 2046, 2053, 2060
4086, 4101, 4116, 4008, 4007, 3991, 3975, 3976
*NSET,NSET=Nload2 
3960, 3959, 3974, 3990, 4006, 4023, 4024, 4131, 4117, 4102, 4087, 4071
*MATERIAL,NAME=EL
*ELASTIC 
 2.1E5,        .3
*DENSITY
 7.8E-9
*SHELL SECTION,ELSET=Eall,MATERIAL=EL
 5
*AMPLITUDE, NAME=A1
 0., 1.,
 .001, 0.,
 5., 0.
*STEP, INC=100000
*DYNAMIC, DIRECT
 1E-7, 1E-3
*RESTART,WRITE,FREQUENCY=1
*CLOAD
 3992, 3, -2e5
**for tr3 2000, 3, -4e-3
 Nload, 3, -1.2e5
 Nload2, 3, -7e4
*NODE FILE, FREQUENCY=100, OUTPUT=2D
 U
*NODE PRINT,NSET=Nall
 U,RF
*END STEP
